                                   MODFLOW 6
                U.S. GEOLOGICAL SURVEY MODULAR HYDROLOGIC MODEL
                          GROUNDWATER FLOW MODEL (GWF)
                            VERSION 6.2.2 07/30/2021

   MODFLOW 6 compiled Jul 30 2021 14:34:58 with IFORT compiler (ver. 19.10.2)

This software has been approved for release by the U.S. Geological 
Survey (USGS). Although the software has been subjected to rigorous 
review, the USGS reserves the right to update the software as needed 
pursuant to further analysis and review. No warranty, expressed or 
implied, is made by the USGS or the U.S. Government as to the 
functionality of the software and related material nor shall the 
fact of release constitute any such warranty. Furthermore, the 
software is released on condition that neither the USGS nor the U.S. 
Government shall be held liable for any damages resulting from its 
authorized or unauthorized use. Also refer to the USGS Water 
Resources Software User Rights Notice for complete use, copyright, 
and distribution information.


System command used to initiate simulation:
mf6

MODFLOW was compiled using uniform precision.

Real Variables
  KIND: 8
  TINY (smallest non-zero value):    2.225074-308
  HUGE (largest value):    1.797693+308
  PRECISION: 15
  BIT SIZE: 64

Integer Variables
  KIND: 4
  HUGE (largest value): 2147483647
  BIT SIZE: 32

Long Integer Variables
  KIND: 8
  HUGE (largest value): 9223372036854775807
  BIT SIZE: 64

Logical Variables
  KIND: 4
  BIT SIZE: 32
 

 OPENED .\flow.dis
 FILE TYPE:DIS6                   UNIT 1005   STATUS:OLD                 
 FORMAT:FORMATTED              ACCESS:SEQUENTIAL          
 ACTION:READ                


 OPENED .\flow.npf
 FILE TYPE:NPF6                   UNIT 1006   STATUS:OLD                 
 FORMAT:FORMATTED              ACCESS:SEQUENTIAL          
 ACTION:READ                


 OPENED .\flow.ic
 FILE TYPE:IC6                    UNIT 1007   STATUS:OLD                 
 FORMAT:FORMATTED              ACCESS:SEQUENTIAL          
 ACTION:READ                


 OPENED .\flow.chd
 FILE TYPE:CHD6                   UNIT 1008   STATUS:OLD                 
 FORMAT:FORMATTED              ACCESS:SEQUENTIAL          
 ACTION:READ                


 OPENED .\flow.rch
 FILE TYPE:RCH6                   UNIT 1009   STATUS:OLD                 
 FORMAT:FORMATTED              ACCESS:SEQUENTIAL          
 ACTION:READ                


 OPENED .\flow.sfr
 FILE TYPE:SFR6                   UNIT 1010   STATUS:OLD                 
 FORMAT:FORMATTED              ACCESS:SEQUENTIAL          
 ACTION:READ                


 OPENED .\flow.oc
 FILE TYPE:OC6                    UNIT 1011   STATUS:OLD                 
 FORMAT:FORMATTED              ACCESS:SEQUENTIAL          
 ACTION:READ                

 NAMEFILE OPTIONS:
    FLOWS WILL BE SAVED TO BUDGET FILE SPECIFIED IN OUTPUT CONTROL
    NEWTON-RAPHSON method enabled for the model.

 DIS -- STRUCTURED GRID DISCRETIZATION PACKAGE, VERSION 2 : 3/27/2014 - INPUT READ FROM UNIT 1005


 # File generated by Flopy version 3.3.5 on 01/26/2022 at 09:22:44.
 PROCESSING DISCRETIZATION OPTIONS
    UNKNOWN UNIT: 
    M
    SETTING TO: 
    UNDEFINED
 END OF DISCRETIZATION OPTIONS
 MODEL LENGTH UNIT IS UNDEFINED
 PROCESSING DISCRETIZATION DIMENSIONS
    NLAY =      80
    NROW =       1
    NCOL =     400
 END OF DISCRETIZATION DIMENSIONS
 PROCESSING GRIDDATA

                     DELR =   25.00000    

                     DELC =   1.000000    

 TOP ELEVATION OF LAYER 1 =   2000.000    

   MODEL LAYER BOTTOM EL. =   1975.000     FOR LAYER 1

   MODEL LAYER BOTTOM EL. =   1950.000     FOR LAYER 2

   MODEL LAYER BOTTOM EL. =   1925.000     FOR LAYER 3

   MODEL LAYER BOTTOM EL. =   1900.000     FOR LAYER 4

   MODEL LAYER BOTTOM EL. =   1875.000     FOR LAYER 5

   MODEL LAYER BOTTOM EL. =   1850.000     FOR LAYER 6

   MODEL LAYER BOTTOM EL. =   1825.000     FOR LAYER 7

   MODEL LAYER BOTTOM EL. =   1800.000     FOR LAYER 8

   MODEL LAYER BOTTOM EL. =   1775.000     FOR LAYER 9

   MODEL LAYER BOTTOM EL. =   1750.000     FOR LAYER 10

   MODEL LAYER BOTTOM EL. =   1725.000     FOR LAYER 11

   MODEL LAYER BOTTOM EL. =   1700.000     FOR LAYER 12

   MODEL LAYER BOTTOM EL. =   1675.000     FOR LAYER 13

   MODEL LAYER BOTTOM EL. =   1650.000     FOR LAYER 14

   MODEL LAYER BOTTOM EL. =   1625.000     FOR LAYER 15

   MODEL LAYER BOTTOM EL. =   1600.000     FOR LAYER 16

   MODEL LAYER BOTTOM EL. =   1575.000     FOR LAYER 17

   MODEL LAYER BOTTOM EL. =   1550.000     FOR LAYER 18

   MODEL LAYER BOTTOM EL. =   1525.000     FOR LAYER 19

   MODEL LAYER BOTTOM EL. =   1500.000     FOR LAYER 20

   MODEL LAYER BOTTOM EL. =   1475.000     FOR LAYER 21

   MODEL LAYER BOTTOM EL. =   1450.000     FOR LAYER 22

   MODEL LAYER BOTTOM EL. =   1425.000     FOR LAYER 23

   MODEL LAYER BOTTOM EL. =   1400.000     FOR LAYER 24

   MODEL LAYER BOTTOM EL. =   1375.000     FOR LAYER 25

   MODEL LAYER BOTTOM EL. =   1350.000     FOR LAYER 26

   MODEL LAYER BOTTOM EL. =   1325.000     FOR LAYER 27

   MODEL LAYER BOTTOM EL. =   1300.000     FOR LAYER 28

   MODEL LAYER BOTTOM EL. =   1275.000     FOR LAYER 29

   MODEL LAYER BOTTOM EL. =   1250.000     FOR LAYER 30

   MODEL LAYER BOTTOM EL. =   1225.000     FOR LAYER 31

   MODEL LAYER BOTTOM EL. =   1200.000     FOR LAYER 32

   MODEL LAYER BOTTOM EL. =   1175.000     FOR LAYER 33

   MODEL LAYER BOTTOM EL. =   1150.000     FOR LAYER 34

   MODEL LAYER BOTTOM EL. =   1125.000     FOR LAYER 35

   MODEL LAYER BOTTOM EL. =   1100.000     FOR LAYER 36

   MODEL LAYER BOTTOM EL. =   1075.000     FOR LAYER 37

   MODEL LAYER BOTTOM EL. =   1050.000     FOR LAYER 38

   MODEL LAYER BOTTOM EL. =   1025.000     FOR LAYER 39

   MODEL LAYER BOTTOM EL. =   1000.000     FOR LAYER 40

   MODEL LAYER BOTTOM EL. =   975.0000     FOR LAYER 41

   MODEL LAYER BOTTOM EL. =   950.0000     FOR LAYER 42

   MODEL LAYER BOTTOM EL. =   925.0000     FOR LAYER 43

   MODEL LAYER BOTTOM EL. =   900.0000     FOR LAYER 44

   MODEL LAYER BOTTOM EL. =   875.0000     FOR LAYER 45

   MODEL LAYER BOTTOM EL. =   850.0000     FOR LAYER 46

   MODEL LAYER BOTTOM EL. =   825.0000     FOR LAYER 47

   MODEL LAYER BOTTOM EL. =   800.0000     FOR LAYER 48

   MODEL LAYER BOTTOM EL. =   775.0000     FOR LAYER 49

   MODEL LAYER BOTTOM EL. =   750.0000     FOR LAYER 50

   MODEL LAYER BOTTOM EL. =   725.0000     FOR LAYER 51

   MODEL LAYER BOTTOM EL. =   700.0000     FOR LAYER 52

   MODEL LAYER BOTTOM EL. =   675.0000     FOR LAYER 53

   MODEL LAYER BOTTOM EL. =   650.0000     FOR LAYER 54

   MODEL LAYER BOTTOM EL. =   625.0000     FOR LAYER 55

   MODEL LAYER BOTTOM EL. =   600.0000     FOR LAYER 56

   MODEL LAYER BOTTOM EL. =   575.0000     FOR LAYER 57

   MODEL LAYER BOTTOM EL. =   550.0000     FOR LAYER 58

   MODEL LAYER BOTTOM EL. =   525.0000     FOR LAYER 59

   MODEL LAYER BOTTOM EL. =   500.0000     FOR LAYER 60

   MODEL LAYER BOTTOM EL. =   475.0000     FOR LAYER 61

   MODEL LAYER BOTTOM EL. =   450.0000     FOR LAYER 62

   MODEL LAYER BOTTOM EL. =   425.0000     FOR LAYER 63

   MODEL LAYER BOTTOM EL. =   400.0000     FOR LAYER 64

   MODEL LAYER BOTTOM EL. =   375.0000     FOR LAYER 65

   MODEL LAYER BOTTOM EL. =   350.0000     FOR LAYER 66

   MODEL LAYER BOTTOM EL. =   325.0000     FOR LAYER 67

   MODEL LAYER BOTTOM EL. =   300.0000     FOR LAYER 68

   MODEL LAYER BOTTOM EL. =   275.0000     FOR LAYER 69

   MODEL LAYER BOTTOM EL. =   250.0000     FOR LAYER 70

   MODEL LAYER BOTTOM EL. =   225.0000     FOR LAYER 71

   MODEL LAYER BOTTOM EL. =   200.0000     FOR LAYER 72

   MODEL LAYER BOTTOM EL. =   175.0000     FOR LAYER 73

   MODEL LAYER BOTTOM EL. =   150.0000     FOR LAYER 74

   MODEL LAYER BOTTOM EL. =   125.0000     FOR LAYER 75

   MODEL LAYER BOTTOM EL. =   100.0000     FOR LAYER 76

   MODEL LAYER BOTTOM EL. =   75.00000     FOR LAYER 77

   MODEL LAYER BOTTOM EL. =   50.00000     FOR LAYER 78

   MODEL LAYER BOTTOM EL. =   25.00000     FOR LAYER 79

   MODEL LAYER BOTTOM EL. =   0.000000     FOR LAYER 80
 END PROCESSING GRIDDATA

 NPF -- NODE PROPERTY FLOW PACKAGE, VERSION 1, 3/30/2015 INPUT READ FROM UNIT 1006


 # File generated by Flopy version 3.3.5 on 01/26/2022 at 09:22:44.
 PROCESSING NPF OPTIONS
    SPECIFIC DISCHARGE WILL BE CALCULATED AT CELL CENTERS AND WRITTEN TO DATA-SPDIS IN BUDGET FILE WHEN REQUESTED.
    SATURATION WILL BE WRITTEN TO DATA-SAT IN BUDGET FILE WHEN REQUESTED.
 END OF NPF OPTIONS

 RCH   -- RCH PACKAGE, VERSION 8, 2/22/2014 INPUT READ FROM UNIT 1009
 # File generated by Flopy version 3.3.5 on 01/26/2022 at 09:22:44.

 PROCESSING RCH OPTIONS
    AUXILIARY RCH VARIABLE: CONCENTRATION   
 END OF RCH OPTIONS

 PROCESSING RCH DIMENSIONS
    MAXBOUND =      24
 END OF RCH DIMENSIONS

 CHD   -- CHD PACKAGE, VERSION 8, 2/22/2014 INPUT READ FROM UNIT 1008
 # File generated by Flopy version 3.3.5 on 01/26/2022 at 09:22:44.

 PROCESSING CHD OPTIONS
    LISTS OF CHD CELLS WILL BE PRINTED.
    CHD FLOWS WILL BE PRINTED TO LISTING FILE.
 END OF CHD OPTIONS

 PROCESSING CHD DIMENSIONS
    MAXBOUND =      36
 END OF CHD DIMENSIONS

 SFR   -- SFR PACKAGE, VERSION 8, 2/22/2014 INPUT READ FROM UNIT 1010
 # File generated by Flopy version 3.3.5 on 01/26/2022 at 09:22:44.

 PROCESSING SFR OPTIONS
    AUXILIARY SFR VARIABLE: CONCENTRATION   
    SFR BOUNDARIES HAVE NAMES IN LAST COLUMN.
    SFR STAGES WILL BE PRINTED TO LISTING FILE.
    SFR FLOWS WILL BE PRINTED TO LISTING FILE.

 OPENED ex-gwt-keating.sfr.bin
 FILE TYPE:DATA(BINARY)   UNIT 1013   STATUS:REPLACE             
 FORMAT:UNFORMATTED            ACCESS:STREAM              
 ACTION:READWRITE           

    SFR  STAGE  WILL BE SAVED TO FILE: ex-gwt-keating.sfr.bin                                                                                                                                                                                                                                                                                                                                                                                                                                                                                                                                                                                                                                                                                                                                                                                                                                                                                                                                                                                                                                                                                                                                                                                                                                                                                                                                                                                                                                                                                                                                                                                                                                                                                                                                                                                                                                                                                                                                                                                                                                                                                                                                                                                                                                                                                                                                                                                                                                                                                                                                                                                                                                                                                                                                                                                                                                                                                                                                                                                                                                                                                                                                                                                                                                                                                                                                                                                                                                                                                                                                                                                                                                                                                                                                                                                                                                                                                                                                                                                                                                                                                                                                                                                                                                                                                                                                                                                                                                                                                                                                                                                                                                                                                                                                                                                                                                                                                                                                                                                                                                                                                                                                                                                  
    OPENED ON UNIT:    1013

 OPENED ex-gwt-keating.sfr.bud
 FILE TYPE:DATA(BINARY)   UNIT 1014   STATUS:REPLACE             
 FORMAT:UNFORMATTED            ACCESS:STREAM              
 ACTION:READWRITE           

    SFR  BUDGET  WILL BE SAVED TO FILE: ex-gwt-keating.sfr.bud                                                                                                                                                                                                                                                                                                                                                                                                                                                                                                                                                                                                                                                                                                                                                                                                                                                                                                                                                                                                                                                                                                                                                                                                                                                                                                                                                                                                                                                                                                                                                                                                                                                                                                                                                                                                                                                                                                                                                                                                                                                                                                                                                                                                                                                                                                                                                                                                                                                                                                                                                                                                                                                                                                                                                                                                                                                                                                                                                                                                                                                                                                                                                                                                                                                                                                                                                                                                                                                                                                                                                                                                                                                                                                                                                                                                                                                                                                                                                                                                                                                                                                                                                                                                                                                                                                                                                                                                                                                                                                                                                                                                                                                                                                                                                                                                                                                                                                                                                                                                                                                                                                                                                                                  
    OPENED ON UNIT:    1014

 OPENED ex-gwt-keating.sfr.obs
 FILE TYPE:OBS   UNIT 1015   STATUS:OLD                 
 FORMAT:FORMATTED              ACCESS:SEQUENTIAL          
 ACTION:READ                

    UNIT CONVERSION VALUE (86400.00000000000) SPECIFIED.
 END OF SFR OPTIONS

 PROCESSING SFR DIMENSIONS
    NREACHES = 24
 END OF SFR DIMENSIONS

 PROCESSING SFR PACKAGEDATA
 END OF SFR PACKAGEDATA

 PROCESSING SFR CONNECTIONDATA
 END OF SFR CONNECTIONDATA

 IC -- INITIAL CONDITIONS PACKAGE, VERSION 8, 3/28/2015 INPUT READ FROM UNIT 1007
 # File generated by Flopy version 3.3.5 on 01/26/2022 at 09:22:44.
 PROCESSING GRIDDATA

     INITIAL HEAD =   600.0000    
 END PROCESSING GRIDDATA
 PROCESSING GRIDDATA

                ICELLTYPE = 1
 K33 not provided.  Assuming K33 = K.
 K22 not provided.  Assuming K22 = K.
 END PROCESSING GRIDDATA
    BINARY GRID INFORMATION WILL BE WRITTEN TO:
      UNIT NUMBER: 1016
      FILE NAME: D:\GWL\GHD021\gwmodel\processing\angv7ss01\ex-gwt-keating\mf6gwf\flow.dis.grb

 OPENED D:\GWL\GHD021\gwmodel\processing\angv7ss01\ex-gwt-keating\mf6gwf\flow.dis.grb
 FILE TYPE:DATA(BINARY)   UNIT 1016   STATUS:REPLACE             
 FORMAT:UNFORMATTED            ACCESS:STREAM              
 ACTION:READWRITE           

      THE LAST TIME STEP WILL BE PRINTED
      THE LAST TIME STEP WILL BE PRINTED
 # File generated by Flopy version 3.3.5 on 01/26/2022 at 09:22:44.

 PROCESSING OC OPTIONS

    BUDGET INFORMATION WILL BE WRITTEN TO:
      UNIT NUMBER: 1017
      FILE NAME: flow.bud

 OPENED flow.bud
 FILE TYPE:DATA(BINARY)   UNIT 1017   STATUS:REPLACE             
 FORMAT:UNFORMATTED            ACCESS:STREAM              
 ACTION:READWRITE           

    HEAD INFORMATION WILL BE WRITTEN TO:
      UNIT NUMBER: 1018
      FILE NAME: flow.hds

 OPENED flow.hds
 FILE TYPE:DATA(BINARY)   UNIT 1018   STATUS:REPLACE             
 FORMAT:UNFORMATTED            ACCESS:STREAM              
 ACTION:READWRITE           

 END OF OC OPTIONS

The observation utility is active for "SFR-1"
 # File generated by Flopy version 3.3.5 on 01/26/2022 at 09:22:44.

Processing observation options:

Text output number of digits of precision set to:  7
The PRINT_INPUT option has been specified.


 OBSERVATIONS READ FROM FILE "ex-gwt-keating.sfr.obs"
 ----------------------------------------------------------------------------------------------------------------------------------------------------------------------------------------------------------------------------
 NAME                                     TYPE                                       TIME         LOCATION DATA                              OUTPUT FILENAME                                                                 
 ----------------------------------------------------------------------------------------------------------------------------------------------------------------------------------------------------------------------------
 REACH1LEAKAGE                            CONTINUOUS  SFR                            ALL TIMES    "REACH1"                                   ex-gwt-keating.sfr.obs.csv                                                      
 REACH12LEAKAGE                           CONTINUOUS  SFR                            ALL TIMES    "REACH12"                                  ex-gwt-keating.sfr.obs.csv                                                      
 REACH24LEAKAGE                           CONTINUOUS  SFR                            ALL TIMES    "REACH24"                                  ex-gwt-keating.sfr.obs.csv                                                      
 ----------------------------------------------------------------------------------------------------------------------------------------------------------------------------------------------------------------------------



start timestep kper="1" kstp="1" mode="normal"


 BEGIN READING OUTPUT CONTROL FOR STRESS PERIOD 1
      ALL TIME STEPS WILL BE SAVED
      ALL TIME STEPS WILL BE SAVED

 END READING OUTPUT CONTROL FOR STRESS PERIOD 1
 ---------------------------------------------------
  CHD NO.    LAYER    ROW     COL         HEAD      
 ---------------------------------------------------
     1        49       1       1     800.000000     
     2        50       1       1     800.000000     
     3        51       1       1     800.000000     
     4        52       1       1     800.000000     
     5        53       1       1     800.000000     
     6        54       1       1     800.000000     
     7        55       1       1     800.000000     
     8        56       1       1     800.000000     
     9        57       1       1     800.000000     
     10       58       1       1     800.000000     
     11       59       1       1     800.000000     
     12       60       1       1     800.000000     
     13       61       1       1     800.000000     
     14       62       1       1     800.000000     
     15       63       1       1     800.000000     
     16       64       1       1     800.000000     
     17       65       1       1     800.000000     
     18       66       1       1     800.000000     
     19       67       1       1     800.000000     
     20       68       1       1     800.000000     
     21       69       1       1     800.000000     
     22       70       1       1     800.000000     
     23       71       1       1     800.000000     
     24       72       1       1     800.000000     
     25       73       1       1     800.000000     
     26       74       1       1     800.000000     
     27       75       1       1     800.000000     
     28       76       1       1     800.000000     
     29       77       1       1     800.000000     
     30       78       1       1     800.000000     
     31       79       1       1     800.000000     
     32       80       1       1     800.000000     
     33       77       1      400    100.000000     
     34       78       1      400    100.000000     
     35       79       1      400    100.000000     
     36       80       1      400    100.000000     
 ---------------------------------------------------


 UBDSV1 SAVING     FLOW-JA-FACE ON UNIT   1017 AT TIME STEP      1, STRESS PERIOD      1
 UBDSV06 SAVING       DATA-SPDIS IN MODEL FLOW             PACKAGE NPF             CONNECTED TO MODEL FLOW             PACKAGE NPF              ON UNIT   1017 AT TIME STEP      1, STRESS PERIOD      1
 UBDSV06 SAVING         DATA-SAT IN MODEL FLOW             PACKAGE NPF             CONNECTED TO MODEL FLOW             PACKAGE NPF              ON UNIT   1017 AT TIME STEP      1, STRESS PERIOD      1
 UBDSV06 SAVING              RCH IN MODEL FLOW             PACKAGE FLOW            CONNECTED TO MODEL FLOW             PACKAGE RCH-1            ON UNIT   1017 AT TIME STEP      1, STRESS PERIOD      1
 UBDSV06 SAVING              CHD IN MODEL FLOW             PACKAGE FLOW            CONNECTED TO MODEL FLOW             PACKAGE CHD-1            ON UNIT   1017 AT TIME STEP      1, STRESS PERIOD      1
 UBDSV06 SAVING              SFR IN MODEL FLOW             PACKAGE FLOW            CONNECTED TO MODEL FLOW             PACKAGE SFR-1            ON UNIT   1017 AT TIME STEP      1, STRESS PERIOD      1
 UBDSV06 SAVING     FLOW-JA-FACE IN MODEL FLOW             PACKAGE SFR-1           CONNECTED TO MODEL FLOW             PACKAGE SFR-1            ON UNIT   1014 AT TIME STEP      1, STRESS PERIOD      1
 UBDSV06 SAVING              GWF IN MODEL FLOW             PACKAGE SFR-1           CONNECTED TO MODEL FLOW             PACKAGE FLOW             ON UNIT   1014 AT TIME STEP      1, STRESS PERIOD      1
 UBDSV06 SAVING         RAINFALL IN MODEL FLOW             PACKAGE SFR-1           CONNECTED TO MODEL FLOW             PACKAGE SFR-1            ON UNIT   1014 AT TIME STEP      1, STRESS PERIOD      1
 UBDSV06 SAVING      EVAPORATION IN MODEL FLOW             PACKAGE SFR-1           CONNECTED TO MODEL FLOW             PACKAGE SFR-1            ON UNIT   1014 AT TIME STEP      1, STRESS PERIOD      1
 UBDSV06 SAVING           RUNOFF IN MODEL FLOW             PACKAGE SFR-1           CONNECTED TO MODEL FLOW             PACKAGE SFR-1            ON UNIT   1014 AT TIME STEP      1, STRESS PERIOD      1
 UBDSV06 SAVING       EXT-INFLOW IN MODEL FLOW             PACKAGE SFR-1           CONNECTED TO MODEL FLOW             PACKAGE SFR-1            ON UNIT   1014 AT TIME STEP      1, STRESS PERIOD      1
 UBDSV06 SAVING      EXT-OUTFLOW IN MODEL FLOW             PACKAGE SFR-1           CONNECTED TO MODEL FLOW             PACKAGE SFR-1            ON UNIT   1014 AT TIME STEP      1, STRESS PERIOD      1
 UBDSV06 SAVING          STORAGE IN MODEL FLOW             PACKAGE SFR-1           CONNECTED TO MODEL FLOW             PACKAGE SFR-1            ON UNIT   1014 AT TIME STEP      1, STRESS PERIOD      1
 UBDSV06 SAVING        AUXILIARY IN MODEL FLOW             PACKAGE SFR-1           CONNECTED TO MODEL FLOW             PACKAGE SFR-1            ON UNIT   1014 AT TIME STEP      1, STRESS PERIOD      1

 CHD PACKAGE (CHD-1) FLOW RATES   PERIOD      1   STEP        1
 -----------------------------------------------
   NUMBER   CELLID                    RATE      
 -----------------------------------------------
     1      (49,1,1)              5.96143134E-02
     2      (50,1,1)              5.96984764E-02
     3      (51,1,1)              5.97495145E-02
     4      (52,1,1)              5.97849734E-02
     5      (53,1,1)              5.98119064E-02
     6      (54,1,1)              5.98335871E-02
     7      (55,1,1)              5.98517357E-02
     8      (56,1,1)              5.98673506E-02
     9      (57,1,1)              5.98810567E-02
     10     (58,1,1)              5.98932683E-02
     11     (59,1,1)              5.99042723E-02
     12     (60,1,1)              5.99142738E-02
     13     (61,1,1)              5.99234230E-02
     14     (62,1,1)              5.99318322E-02
     15     (63,1,1)              5.99395864E-02
     16     (64,1,1)              5.99467505E-02
     17     (65,1,1)              5.99533742E-02
     18     (66,1,1)              5.99594959E-02
     19     (67,1,1)              5.99651450E-02
     20     (68,1,1)              5.99703441E-02
     21     (69,1,1)              5.99751103E-02
     22     (70,1,1)              5.99794565E-02
     23     (71,1,1)              5.99833922E-02
     24     (72,1,1)              5.99869243E-02
     25     (73,1,1)              5.99900578E-02
     26     (74,1,1)              5.99927959E-02
     27     (75,1,1)              5.99951409E-02
     28     (76,1,1)              5.99970941E-02
     29     (77,1,1)              5.99986562E-02
     30     (78,1,1)              5.99998277E-02
     31     (79,1,1)              6.00006087E-02
     32     (80,1,1)              6.00009992E-02
     33     (77,1,400)           -17.244167     
     34     (78,1,400)           -9.7911549     
     35     (79,1,400)           -9.1658846     
     36     (80,1,400)           -8.9161489     
 -----------------------------------------------




 SFR PACKAGE (SFR-1) FLOW RATES   PERIOD      1   STEP        1
 ----------------------------------------------------------------------------------------
   NUMBER   CELLID                    RATE       NAME                                    
 ----------------------------------------------------------------------------------------
     1      (1,1,169)             21.929568      REACH1                                  
     2      (1,1,170)             21.270432      REACH2                                  
     3      (1,1,171)             0.0000000      REACH3                                  
     4      (1,1,172)             0.0000000      REACH4                                  
     5      (1,1,173)             0.0000000      REACH5                                  
     6      (1,1,174)             0.0000000      REACH6                                  
     7      (1,1,175)             0.0000000      REACH7                                  
     8      (1,1,176)             0.0000000      REACH8                                  
     9      (1,1,177)             0.0000000      REACH9                                  
     10     (1,1,178)             0.0000000      REACH10                                 
     11     (1,1,179)             0.0000000      REACH11                                 
     12     (1,1,180)             0.0000000      REACH12                                 
     13     (1,1,181)             0.0000000      REACH13                                 
     14     (1,1,182)             0.0000000      REACH14                                 
     15     (1,1,183)             0.0000000      REACH15                                 
     16     (1,1,184)             0.0000000      REACH16                                 
     17     (1,1,185)             0.0000000      REACH17                                 
     18     (1,1,186)             0.0000000      REACH18                                 
     19     (1,1,187)             0.0000000      REACH19                                 
     20     (1,1,188)             0.0000000      REACH20                                 
     21     (1,1,189)             0.0000000      REACH21                                 
     22     (1,1,190)             0.0000000      REACH22                                 
     23     (1,1,191)             0.0000000      REACH23                                 
     24     (1,1,192)             0.0000000      REACH24                                 
 ----------------------------------------------------------------------------------------




 SFR-1 PACKAGE - SUMMARY OF FLOWS FOR EACH CONTROL VOLUME   PERIOD      1   STEP        1
 ------------------------------------------------------------------------------------------------------------------------------------------------------------------------------
                                                                                                                                                                     PERCENT   
   NUMBER   CELLID                  INFLOW      OUTFLOW        GWF        RAINFALL   EVAPORATION     RUNOFF     EXT INFLOW  EXT OUTFLOW    STORAGE      IN - OUT    DIFFERENCE 
 ------------------------------------------------------------------------------------------------------------------------------------------------------------------------------
     1      (1,1,169)             0.0000      -21.270      -21.930       0.0000       0.0000       0.0000       43.200       0.0000       0.0000       0.0000       0.0000     
     2      (1,1,170)             21.270       0.0000      -21.270       0.0000       0.0000       0.0000       0.0000       0.0000       0.0000       0.0000       0.0000     
     3      (1,1,171)             0.0000       0.0000       0.0000       0.0000       0.0000       0.0000       0.0000       0.0000       0.0000       0.0000       0.0000     
     4      (1,1,172)             0.0000       0.0000       0.0000       0.0000       0.0000       0.0000       0.0000       0.0000       0.0000       0.0000       0.0000     
     5      (1,1,173)             0.0000       0.0000       0.0000       0.0000       0.0000       0.0000       0.0000       0.0000       0.0000       0.0000       0.0000     
     6      (1,1,174)             0.0000       0.0000       0.0000       0.0000       0.0000       0.0000       0.0000       0.0000       0.0000       0.0000       0.0000     
     7      (1,1,175)             0.0000       0.0000       0.0000       0.0000       0.0000       0.0000       0.0000       0.0000       0.0000       0.0000       0.0000     
     8      (1,1,176)             0.0000       0.0000       0.0000       0.0000       0.0000       0.0000       0.0000       0.0000       0.0000       0.0000       0.0000     
     9      (1,1,177)             0.0000       0.0000       0.0000       0.0000       0.0000       0.0000       0.0000       0.0000       0.0000       0.0000       0.0000     
     10     (1,1,178)             0.0000       0.0000       0.0000       0.0000       0.0000       0.0000       0.0000       0.0000       0.0000       0.0000       0.0000     
     11     (1,1,179)             0.0000       0.0000       0.0000       0.0000       0.0000       0.0000       0.0000       0.0000       0.0000       0.0000       0.0000     
     12     (1,1,180)             0.0000       0.0000       0.0000       0.0000       0.0000       0.0000       0.0000       0.0000       0.0000       0.0000       0.0000     
     13     (1,1,181)             0.0000       0.0000       0.0000       0.0000       0.0000       0.0000       0.0000       0.0000       0.0000       0.0000       0.0000     
     14     (1,1,182)             0.0000       0.0000       0.0000       0.0000       0.0000       0.0000       0.0000       0.0000       0.0000       0.0000       0.0000     
     15     (1,1,183)             0.0000       0.0000       0.0000       0.0000       0.0000       0.0000       0.0000       0.0000       0.0000       0.0000       0.0000     
     16     (1,1,184)             0.0000       0.0000       0.0000       0.0000       0.0000       0.0000       0.0000       0.0000       0.0000       0.0000       0.0000     
     17     (1,1,185)             0.0000       0.0000       0.0000       0.0000       0.0000       0.0000       0.0000       0.0000       0.0000       0.0000       0.0000     
     18     (1,1,186)             0.0000       0.0000       0.0000       0.0000       0.0000       0.0000       0.0000       0.0000       0.0000       0.0000       0.0000     
     19     (1,1,187)             0.0000       0.0000       0.0000       0.0000       0.0000       0.0000       0.0000       0.0000       0.0000       0.0000       0.0000     
     20     (1,1,188)             0.0000       0.0000       0.0000       0.0000       0.0000       0.0000       0.0000       0.0000       0.0000       0.0000       0.0000     
     21     (1,1,189)             0.0000       0.0000       0.0000       0.0000       0.0000       0.0000       0.0000       0.0000       0.0000       0.0000       0.0000     
     22     (1,1,190)             0.0000       0.0000       0.0000       0.0000       0.0000       0.0000       0.0000       0.0000       0.0000       0.0000       0.0000     
     23     (1,1,191)             0.0000       0.0000       0.0000       0.0000       0.0000       0.0000       0.0000       0.0000       0.0000       0.0000       0.0000     
     24     (1,1,192)             0.0000       0.0000       0.0000       0.0000       0.0000       0.0000       0.0000       0.0000       0.0000       0.0000       0.0000     
 ------------------------------------------------------------------------------------------------------------------------------------------------------------------------------



 SFR PACKAGE (SFR-1) STAGES FOR EACH CONTROL VOLUME   PERIOD      1   STEP        1
 ------------------------------------------------------------------------------------------------------------------------------------------------------
                                                                                                                               STREAMBED    STREAMBED  
 NAME                                       NUMBER   CELLID                  STAGE        DEPTH        WIDTH       GWF HEAD   CONDUCTANCE    GRADIENT  
 ------------------------------------------------------------------------------------------------------------------------------------------------------
 REACH1                                       1      (1,1,169)             2000.0       3.49213E-02  1.0000       1975.0       21.190       1.0349     
 REACH2                                       2      (1,1,170)             1999.9       6.12266E-03  1.0000       1975.0       21.190       1.0061     
 REACH3                                       3      (1,1,171)             1999.9       0.0000       0.0000       1413.1       21.190       1.0000     
 REACH4                                       4      (1,1,172)             1999.8       0.0000       0.0000       1381.8       21.190       1.0000     
 REACH5                                       5      (1,1,173)             1999.8       0.0000       0.0000       1374.0       21.190       1.0000     
 REACH6                                       6      (1,1,174)             1999.7       0.0000       0.0000       1367.2       21.190       1.0000     
 REACH7                                       7      (1,1,175)             1999.6       0.0000       0.0000       1363.2       21.190       1.0000     
 REACH8                                       8      (1,1,176)             1999.6       0.0000       0.0000       1359.8       21.190       1.0000     
 REACH9                                       9      (1,1,177)             1999.5       0.0000       0.0000       1356.8       21.190       1.0000     
 REACH10                                      10     (1,1,178)             1999.5       0.0000       0.0000       1354.1       21.190       1.0000     
 REACH11                                      11     (1,1,179)             1999.4       0.0000       0.0000       1351.5       21.190       1.0000     
 REACH12                                      12     (1,1,180)             1999.3       0.0000       0.0000       1349.0       21.190       1.0000     
 REACH13                                      13     (1,1,181)             1999.3       0.0000       0.0000       1346.5       21.190       1.0000     
 REACH14                                      14     (1,1,182)             1999.2       0.0000       0.0000       1344.2       21.190       1.0000     
 REACH15                                      15     (1,1,183)             1999.2       0.0000       0.0000       1341.9       21.190       1.0000     
 REACH16                                      16     (1,1,184)             1999.1       0.0000       0.0000       1339.7       21.190       1.0000     
 REACH17                                      17     (1,1,185)             1999.0       0.0000       0.0000       1337.4       21.190       1.0000     
 REACH18                                      18     (1,1,186)             1999.0       0.0000       0.0000       1335.2       21.190       1.0000     
 REACH19                                      19     (1,1,187)             1998.9       0.0000       0.0000       1332.9       21.190       1.0000     
 REACH20                                      20     (1,1,188)             1998.9       0.0000       0.0000       1330.7       21.190       1.0000     
 REACH21                                      21     (1,1,189)             1998.8       0.0000       0.0000       1328.4       21.190       1.0000     
 REACH22                                      22     (1,1,190)             1998.7       0.0000       0.0000       1326.1       21.190       1.0000     
 REACH23                                      23     (1,1,191)             1998.7       0.0000       0.0000       1323.8       21.190       1.0000     
 REACH24                                      24     (1,1,192)             1998.6       0.0000       0.0000       1321.3       21.190       1.0000     
 ------------------------------------------------------------------------------------------------------------------------------------------------------



 HEAD WILL BE SAVED ON UNIT 1018 AT END OF TIME STEP    1, STRESS PERIOD    1


  SFR-1 BUDGET FOR ENTIRE MODEL AT END OF TIME STEP    1, STRESS PERIOD   1
  ------------------------------------------------------------------------------

     CUMULATIVE SFR-1      L**3       RATES FOR THIS TIME STEP      L**3/T
     ------------------                 ------------------------

           IN:                                      IN:
           ---                                      ---
                 GWF =           0.0000                   GWF =           0.0000
            RAINFALL =           0.0000              RAINFALL =           0.0000
         EVAPORATION =           0.0000           EVAPORATION =           0.0000
              RUNOFF =           0.0000                RUNOFF =           0.0000
          EXT-INFLOW =       31536.0000            EXT-INFLOW =          43.2000
         EXT-OUTFLOW =           0.0000           EXT-OUTFLOW =           0.0000
             STORAGE =           0.0000               STORAGE =           0.0000
           AUXILIARY =           0.0000             AUXILIARY =           0.0000

            TOTAL IN =       31536.0000              TOTAL IN =          43.2000

          OUT:                                     OUT:
          ----                                     ----
                 GWF =       31536.0000                   GWF =          43.2000
            RAINFALL =           0.0000              RAINFALL =           0.0000
         EVAPORATION =           0.0000           EVAPORATION =           0.0000
              RUNOFF =           0.0000                RUNOFF =           0.0000
          EXT-INFLOW =           0.0000            EXT-INFLOW =           0.0000
         EXT-OUTFLOW =           0.0000           EXT-OUTFLOW =           0.0000
             STORAGE =           0.0000               STORAGE =           0.0000
           AUXILIARY =           0.0000             AUXILIARY =           0.0000

           TOTAL OUT =       31536.0000             TOTAL OUT =          43.2000

            IN - OUT =           0.0000              IN - OUT =           0.0000

 PERCENT DISCREPANCY =           0.00     PERCENT DISCREPANCY =           0.00



  VOLUME BUDGET FOR ENTIRE MODEL AT END OF TIME STEP    1, STRESS PERIOD   1
  ---------------------------------------------------------------------------------------------------

     CUMULATIVE VOLUME      L**3       RATES FOR THIS TIME STEP      L**3/T          PACKAGE NAME    
     ------------------                 ------------------------                     ----------------

           IN:                                      IN:
           ---                                      ---
                 RCH =           0.0000                   RCH =           0.0000     RCH-1           
                 CHD =        1399.6252                   CHD =           1.9173     CHD-1           
                 SFR =       31536.0000                   SFR =          43.2000     SFR-1           

            TOTAL IN =       32935.6252              TOTAL IN =          45.1173

          OUT:                                     OUT:
          ----                                     ----
                 RCH =           0.0000                   RCH =           0.0000     RCH-1           
                 CHD =       32935.6693                   CHD =          45.1174     CHD-1           
                 SFR =           0.0000                   SFR =           0.0000     SFR-1           

           TOTAL OUT =       32935.6693             TOTAL OUT =          45.1174

            IN - OUT =      -4.4178E-02              IN - OUT =      -6.0517E-05

 PERCENT DISCREPANCY =          -0.00     PERCENT DISCREPANCY =          -0.00




         TIME SUMMARY AT END OF TIME STEP    1 IN STRESS PERIOD    1
                    SECONDS     MINUTES      HOURS       DAYS        YEARS
                    -----------------------------------------------------------
   TIME STEP LENGTH 6.30720E+07 1.05120E+06  17520.      730.00      1.9986    
 STRESS PERIOD TIME 6.30720E+07 1.05120E+06  17520.      730.00      1.9986    
         TOTAL TIME 6.30720E+07 1.05120E+06  17520.      730.00      1.9986    


end timestep


start timestep kper="2" kstp="1" mode="normal"


 END OF FILE DETECTED IN OUTPUT CONTROL.
 CURRENT OUTPUT CONTROL SETTINGS WILL BE 
 REPEATED UNTIL THE END OF THE SIMULATION.

 OUTPUT CONTROL FOR STRESS PERIOD 2 IS REPEATED USING SETTINGS FROM A PREVIOUS STRESS PERIOD.

 REUSING CHDS FROM LAST STRESS PERIOD
 UBDSV1 SAVING     FLOW-JA-FACE ON UNIT   1017 AT TIME STEP      1, STRESS PERIOD      2
 UBDSV06 SAVING       DATA-SPDIS IN MODEL FLOW             PACKAGE NPF             CONNECTED TO MODEL FLOW             PACKAGE NPF              ON UNIT   1017 AT TIME STEP      1, STRESS PERIOD      2
 UBDSV06 SAVING         DATA-SAT IN MODEL FLOW             PACKAGE NPF             CONNECTED TO MODEL FLOW             PACKAGE NPF              ON UNIT   1017 AT TIME STEP      1, STRESS PERIOD      2
 UBDSV06 SAVING              RCH IN MODEL FLOW             PACKAGE FLOW            CONNECTED TO MODEL FLOW             PACKAGE RCH-1            ON UNIT   1017 AT TIME STEP      1, STRESS PERIOD      2
 UBDSV06 SAVING              CHD IN MODEL FLOW             PACKAGE FLOW            CONNECTED TO MODEL FLOW             PACKAGE CHD-1            ON UNIT   1017 AT TIME STEP      1, STRESS PERIOD      2
 UBDSV06 SAVING              SFR IN MODEL FLOW             PACKAGE FLOW            CONNECTED TO MODEL FLOW             PACKAGE SFR-1            ON UNIT   1017 AT TIME STEP      1, STRESS PERIOD      2
 UBDSV06 SAVING     FLOW-JA-FACE IN MODEL FLOW             PACKAGE SFR-1           CONNECTED TO MODEL FLOW             PACKAGE SFR-1            ON UNIT   1014 AT TIME STEP      1, STRESS PERIOD      2
 UBDSV06 SAVING              GWF IN MODEL FLOW             PACKAGE SFR-1           CONNECTED TO MODEL FLOW             PACKAGE FLOW             ON UNIT   1014 AT TIME STEP      1, STRESS PERIOD      2
 UBDSV06 SAVING         RAINFALL IN MODEL FLOW             PACKAGE SFR-1           CONNECTED TO MODEL FLOW             PACKAGE SFR-1            ON UNIT   1014 AT TIME STEP      1, STRESS PERIOD      2
 UBDSV06 SAVING      EVAPORATION IN MODEL FLOW             PACKAGE SFR-1           CONNECTED TO MODEL FLOW             PACKAGE SFR-1            ON UNIT   1014 AT TIME STEP      1, STRESS PERIOD      2
 UBDSV06 SAVING           RUNOFF IN MODEL FLOW             PACKAGE SFR-1           CONNECTED TO MODEL FLOW             PACKAGE SFR-1            ON UNIT   1014 AT TIME STEP      1, STRESS PERIOD      2
 UBDSV06 SAVING       EXT-INFLOW IN MODEL FLOW             PACKAGE SFR-1           CONNECTED TO MODEL FLOW             PACKAGE SFR-1            ON UNIT   1014 AT TIME STEP      1, STRESS PERIOD      2
 UBDSV06 SAVING      EXT-OUTFLOW IN MODEL FLOW             PACKAGE SFR-1           CONNECTED TO MODEL FLOW             PACKAGE SFR-1            ON UNIT   1014 AT TIME STEP      1, STRESS PERIOD      2
 UBDSV06 SAVING          STORAGE IN MODEL FLOW             PACKAGE SFR-1           CONNECTED TO MODEL FLOW             PACKAGE SFR-1            ON UNIT   1014 AT TIME STEP      1, STRESS PERIOD      2
 UBDSV06 SAVING        AUXILIARY IN MODEL FLOW             PACKAGE SFR-1           CONNECTED TO MODEL FLOW             PACKAGE SFR-1            ON UNIT   1014 AT TIME STEP      1, STRESS PERIOD      2

 CHD PACKAGE (CHD-1) FLOW RATES   PERIOD      2   STEP        1
 -----------------------------------------------
   NUMBER   CELLID                    RATE      
 -----------------------------------------------
     1      (49,1,1)              5.96143624E-02
     2      (50,1,1)              5.96985259E-02
     3      (51,1,1)              5.97495644E-02
     4      (52,1,1)              5.97850235E-02
     5      (53,1,1)              5.98119565E-02
     6      (54,1,1)              5.98336369E-02
     7      (55,1,1)              5.98517851E-02
     8      (56,1,1)              5.98673995E-02
     9      (57,1,1)              5.98811050E-02
     10     (58,1,1)              5.98933162E-02
     11     (59,1,1)              5.99043196E-02
     12     (60,1,1)              5.99143206E-02
     13     (61,1,1)              5.99234693E-02
     14     (62,1,1)              5.99318780E-02
     15     (63,1,1)              5.99396318E-02
     16     (64,1,1)              5.99467954E-02
     17     (65,1,1)              5.99534187E-02
     18     (66,1,1)              5.99595401E-02
     19     (67,1,1)              5.99651889E-02
     20     (68,1,1)              5.99703878E-02
     21     (69,1,1)              5.99751538E-02
     22     (70,1,1)              5.99794999E-02
     23     (71,1,1)              5.99834356E-02
     24     (72,1,1)              5.99869678E-02
     25     (73,1,1)              5.99901013E-02
     26     (74,1,1)              5.99928396E-02
     27     (75,1,1)              5.99951847E-02
     28     (76,1,1)              5.99971381E-02
     29     (77,1,1)              5.99987005E-02
     30     (78,1,1)              5.99998723E-02
     31     (79,1,1)              6.00006535E-02
     32     (80,1,1)              6.00010442E-02
     33     (77,1,400)           -17.244165     
     34     (78,1,400)           -9.7911543     
     35     (79,1,400)           -9.1658840     
     36     (80,1,400)           -8.9161483     
 -----------------------------------------------




 SFR PACKAGE (SFR-1) FLOW RATES   PERIOD      2   STEP        1
 ----------------------------------------------------------------------------------------
   NUMBER   CELLID                    RATE       NAME                                    
 ----------------------------------------------------------------------------------------
     1      (1,1,169)             21.929568      REACH1                                  
     2      (1,1,170)             21.270432      REACH2                                  
     3      (1,1,171)             0.0000000      REACH3                                  
     4      (1,1,172)             0.0000000      REACH4                                  
     5      (1,1,173)             0.0000000      REACH5                                  
     6      (1,1,174)             0.0000000      REACH6                                  
     7      (1,1,175)             0.0000000      REACH7                                  
     8      (1,1,176)             0.0000000      REACH8                                  
     9      (1,1,177)             0.0000000      REACH9                                  
     10     (1,1,178)             0.0000000      REACH10                                 
     11     (1,1,179)             0.0000000      REACH11                                 
     12     (1,1,180)             0.0000000      REACH12                                 
     13     (1,1,181)             0.0000000      REACH13                                 
     14     (1,1,182)             0.0000000      REACH14                                 
     15     (1,1,183)             0.0000000      REACH15                                 
     16     (1,1,184)             0.0000000      REACH16                                 
     17     (1,1,185)             0.0000000      REACH17                                 
     18     (1,1,186)             0.0000000      REACH18                                 
     19     (1,1,187)             0.0000000      REACH19                                 
     20     (1,1,188)             0.0000000      REACH20                                 
     21     (1,1,189)             0.0000000      REACH21                                 
     22     (1,1,190)             0.0000000      REACH22                                 
     23     (1,1,191)             0.0000000      REACH23                                 
     24     (1,1,192)             0.0000000      REACH24                                 
 ----------------------------------------------------------------------------------------




 SFR-1 PACKAGE - SUMMARY OF FLOWS FOR EACH CONTROL VOLUME   PERIOD      2   STEP        1
 ------------------------------------------------------------------------------------------------------------------------------------------------------------------------------
                                                                                                                                                                     PERCENT   
   NUMBER   CELLID                  INFLOW      OUTFLOW        GWF        RAINFALL   EVAPORATION     RUNOFF     EXT INFLOW  EXT OUTFLOW    STORAGE      IN - OUT    DIFFERENCE 
 ------------------------------------------------------------------------------------------------------------------------------------------------------------------------------
     1      (1,1,169)             0.0000      -21.270      -21.930       0.0000       0.0000       0.0000       43.200       0.0000       0.0000       0.0000       0.0000     
     2      (1,1,170)             21.270       0.0000      -21.270       0.0000       0.0000       0.0000       0.0000       0.0000       0.0000       0.0000       0.0000     
     3      (1,1,171)             0.0000       0.0000       0.0000       0.0000       0.0000       0.0000       0.0000       0.0000       0.0000       0.0000       0.0000     
     4      (1,1,172)             0.0000       0.0000       0.0000       0.0000       0.0000       0.0000       0.0000       0.0000       0.0000       0.0000       0.0000     
     5      (1,1,173)             0.0000       0.0000       0.0000       0.0000       0.0000       0.0000       0.0000       0.0000       0.0000       0.0000       0.0000     
     6      (1,1,174)             0.0000       0.0000       0.0000       0.0000       0.0000       0.0000       0.0000       0.0000       0.0000       0.0000       0.0000     
     7      (1,1,175)             0.0000       0.0000       0.0000       0.0000       0.0000       0.0000       0.0000       0.0000       0.0000       0.0000       0.0000     
     8      (1,1,176)             0.0000       0.0000       0.0000       0.0000       0.0000       0.0000       0.0000       0.0000       0.0000       0.0000       0.0000     
     9      (1,1,177)             0.0000       0.0000       0.0000       0.0000       0.0000       0.0000       0.0000       0.0000       0.0000       0.0000       0.0000     
     10     (1,1,178)             0.0000       0.0000       0.0000       0.0000       0.0000       0.0000       0.0000       0.0000       0.0000       0.0000       0.0000     
     11     (1,1,179)             0.0000       0.0000       0.0000       0.0000       0.0000       0.0000       0.0000       0.0000       0.0000       0.0000       0.0000     
     12     (1,1,180)             0.0000       0.0000       0.0000       0.0000       0.0000       0.0000       0.0000       0.0000       0.0000       0.0000       0.0000     
     13     (1,1,181)             0.0000       0.0000       0.0000       0.0000       0.0000       0.0000       0.0000       0.0000       0.0000       0.0000       0.0000     
     14     (1,1,182)             0.0000       0.0000       0.0000       0.0000       0.0000       0.0000       0.0000       0.0000       0.0000       0.0000       0.0000     
     15     (1,1,183)             0.0000       0.0000       0.0000       0.0000       0.0000       0.0000       0.0000       0.0000       0.0000       0.0000       0.0000     
     16     (1,1,184)             0.0000       0.0000       0.0000       0.0000       0.0000       0.0000       0.0000       0.0000       0.0000       0.0000       0.0000     
     17     (1,1,185)             0.0000       0.0000       0.0000       0.0000       0.0000       0.0000       0.0000       0.0000       0.0000       0.0000       0.0000     
     18     (1,1,186)             0.0000       0.0000       0.0000       0.0000       0.0000       0.0000       0.0000       0.0000       0.0000       0.0000       0.0000     
     19     (1,1,187)             0.0000       0.0000       0.0000       0.0000       0.0000       0.0000       0.0000       0.0000       0.0000       0.0000       0.0000     
     20     (1,1,188)             0.0000       0.0000       0.0000       0.0000       0.0000       0.0000       0.0000       0.0000       0.0000       0.0000       0.0000     
     21     (1,1,189)             0.0000       0.0000       0.0000       0.0000       0.0000       0.0000       0.0000       0.0000       0.0000       0.0000       0.0000     
     22     (1,1,190)             0.0000       0.0000       0.0000       0.0000       0.0000       0.0000       0.0000       0.0000       0.0000       0.0000       0.0000     
     23     (1,1,191)             0.0000       0.0000       0.0000       0.0000       0.0000       0.0000       0.0000       0.0000       0.0000       0.0000       0.0000     
     24     (1,1,192)             0.0000       0.0000       0.0000       0.0000       0.0000       0.0000       0.0000       0.0000       0.0000       0.0000       0.0000     
 ------------------------------------------------------------------------------------------------------------------------------------------------------------------------------



 SFR PACKAGE (SFR-1) STAGES FOR EACH CONTROL VOLUME   PERIOD      2   STEP        1
 ------------------------------------------------------------------------------------------------------------------------------------------------------
                                                                                                                               STREAMBED    STREAMBED  
 NAME                                       NUMBER   CELLID                  STAGE        DEPTH        WIDTH       GWF HEAD   CONDUCTANCE    GRADIENT  
 ------------------------------------------------------------------------------------------------------------------------------------------------------
 REACH1                                       1      (1,1,169)             2000.0       3.49213E-02  1.0000       1975.0       21.190       1.0349     
 REACH2                                       2      (1,1,170)             1999.9       6.12266E-03  1.0000       1975.0       21.190       1.0061     
 REACH3                                       3      (1,1,171)             1999.9       0.0000       0.0000       1413.1       21.190       1.0000     
 REACH4                                       4      (1,1,172)             1999.8       0.0000       0.0000       1381.8       21.190       1.0000     
 REACH5                                       5      (1,1,173)             1999.8       0.0000       0.0000       1374.0       21.190       1.0000     
 REACH6                                       6      (1,1,174)             1999.7       0.0000       0.0000       1367.2       21.190       1.0000     
 REACH7                                       7      (1,1,175)             1999.6       0.0000       0.0000       1363.2       21.190       1.0000     
 REACH8                                       8      (1,1,176)             1999.6       0.0000       0.0000       1359.8       21.190       1.0000     
 REACH9                                       9      (1,1,177)             1999.5       0.0000       0.0000       1356.8       21.190       1.0000     
 REACH10                                      10     (1,1,178)             1999.5       0.0000       0.0000       1354.1       21.190       1.0000     
 REACH11                                      11     (1,1,179)             1999.4       0.0000       0.0000       1351.5       21.190       1.0000     
 REACH12                                      12     (1,1,180)             1999.3       0.0000       0.0000       1349.0       21.190       1.0000     
 REACH13                                      13     (1,1,181)             1999.3       0.0000       0.0000       1346.5       21.190       1.0000     
 REACH14                                      14     (1,1,182)             1999.2       0.0000       0.0000       1344.2       21.190       1.0000     
 REACH15                                      15     (1,1,183)             1999.2       0.0000       0.0000       1341.9       21.190       1.0000     
 REACH16                                      16     (1,1,184)             1999.1       0.0000       0.0000       1339.7       21.190       1.0000     
 REACH17                                      17     (1,1,185)             1999.0       0.0000       0.0000       1337.4       21.190       1.0000     
 REACH18                                      18     (1,1,186)             1999.0       0.0000       0.0000       1335.2       21.190       1.0000     
 REACH19                                      19     (1,1,187)             1998.9       0.0000       0.0000       1332.9       21.190       1.0000     
 REACH20                                      20     (1,1,188)             1998.9       0.0000       0.0000       1330.7       21.190       1.0000     
 REACH21                                      21     (1,1,189)             1998.8       0.0000       0.0000       1328.4       21.190       1.0000     
 REACH22                                      22     (1,1,190)             1998.7       0.0000       0.0000       1326.1       21.190       1.0000     
 REACH23                                      23     (1,1,191)             1998.7       0.0000       0.0000       1323.8       21.190       1.0000     
 REACH24                                      24     (1,1,192)             1998.6       0.0000       0.0000       1321.3       21.190       1.0000     
 ------------------------------------------------------------------------------------------------------------------------------------------------------



 HEAD WILL BE SAVED ON UNIT 1018 AT END OF TIME STEP    1, STRESS PERIOD    2


  SFR-1 BUDGET FOR ENTIRE MODEL AT END OF TIME STEP    1, STRESS PERIOD   2
  ------------------------------------------------------------------------------

     CUMULATIVE SFR-1      L**3       RATES FOR THIS TIME STEP      L**3/T
     ------------------                 ------------------------

           IN:                                      IN:
           ---                                      ---
                 GWF =           0.0000                   GWF =           0.0000
            RAINFALL =           0.0000              RAINFALL =           0.0000
         EVAPORATION =           0.0000           EVAPORATION =           0.0000
              RUNOFF =           0.0000                RUNOFF =           0.0000
          EXT-INFLOW =     1296000.0000            EXT-INFLOW =          43.2000
         EXT-OUTFLOW =           0.0000           EXT-OUTFLOW =           0.0000
             STORAGE =           0.0000               STORAGE =           0.0000
           AUXILIARY =           0.0000             AUXILIARY =           0.0000

            TOTAL IN =     1296000.0000              TOTAL IN =          43.2000

          OUT:                                     OUT:
          ----                                     ----
                 GWF =     1296000.0000                   GWF =          43.2000
            RAINFALL =           0.0000              RAINFALL =           0.0000
         EVAPORATION =           0.0000           EVAPORATION =           0.0000
              RUNOFF =           0.0000                RUNOFF =           0.0000
          EXT-INFLOW =           0.0000            EXT-INFLOW =           0.0000
         EXT-OUTFLOW =           0.0000           EXT-OUTFLOW =           0.0000
             STORAGE =           0.0000               STORAGE =           0.0000
           AUXILIARY =           0.0000             AUXILIARY =           0.0000

           TOTAL OUT =     1296000.0000             TOTAL OUT =          43.2000

            IN - OUT =           0.0000              IN - OUT =           0.0000

 PERCENT DISCREPANCY =           0.00     PERCENT DISCREPANCY =           0.00



  VOLUME BUDGET FOR ENTIRE MODEL AT END OF TIME STEP    1, STRESS PERIOD   2
  ---------------------------------------------------------------------------------------------------

     CUMULATIVE VOLUME      L**3       RATES FOR THIS TIME STEP      L**3/T          PACKAGE NAME    
     ------------------                 ------------------------                     ----------------

           IN:                                      IN:
           ---                                      ---
                 RCH =           0.0000                   RCH =           0.0000     RCH-1           
                 CHD =       57518.8854                   CHD =           1.9173     CHD-1           
                 SFR =     1296000.0000                   SFR =          43.2000     SFR-1           

            TOTAL IN =     1353518.8854              TOTAL IN =          45.1173

          OUT:                                     OUT:
          ----                                     ----
                 RCH =           0.0000                   RCH =           0.0000     RCH-1           
                 CHD =     1353520.5603                   CHD =          45.1174     CHD-1           
                 SFR =           0.0000                   SFR =           0.0000     SFR-1           

           TOTAL OUT =     1353520.5603             TOTAL OUT =          45.1174

            IN - OUT =          -1.6749              IN - OUT =      -5.5713E-05

 PERCENT DISCREPANCY =          -0.00     PERCENT DISCREPANCY =          -0.00




         TIME SUMMARY AT END OF TIME STEP    1 IN STRESS PERIOD    2
                    SECONDS     MINUTES      HOURS       DAYS        YEARS
                    -----------------------------------------------------------
   TIME STEP LENGTH 2.52893E+09 4.21488E+07 7.02480E+05  29270.      80.137    
 STRESS PERIOD TIME 2.52893E+09 4.21488E+07 7.02480E+05  29270.      80.137    
         TOTAL TIME 2.59200E+09 4.32000E+07 7.20000E+05  30000.      82.136    


end timestep

