                                   MODFLOW 6
                U.S. GEOLOGICAL SURVEY MODULAR HYDROLOGIC MODEL
                            VERSION 6.2.2 07/30/2021

   MODFLOW 6 compiled Jul 30 2021 14:34:58 with IFORT compiler (ver. 19.10.2)

This software has been approved for release by the U.S. Geological 
Survey (USGS). Although the software has been subjected to rigorous 
review, the USGS reserves the right to update the software as needed 
pursuant to further analysis and review. No warranty, expressed or 
implied, is made by the USGS or the U.S. Government as to the 
functionality of the software and related material nor shall the 
fact of release constitute any such warranty. Furthermore, the 
software is released on condition that neither the USGS nor the U.S. 
Government shall be held liable for any damages resulting from its 
authorized or unauthorized use. Also refer to the USGS Water 
Resources Software User Rights Notice for complete use, copyright, 
and distribution information.


System command used to initiate simulation:
mf6

MODFLOW was compiled using uniform precision.

Real Variables
  KIND: 8
  TINY (smallest non-zero value):    2.225074-308
  HUGE (largest value):    1.797693+308
  PRECISION: 15
  BIT SIZE: 64

Integer Variables
  KIND: 4
  HUGE (largest value): 2147483647
  BIT SIZE: 32

Long Integer Variables
  KIND: 8
  HUGE (largest value): 9223372036854775807
  BIT SIZE: 64

Logical Variables
  KIND: 4
  BIT SIZE: 32
 

 OPENED mfsim.nam
 FILE TYPE:NAM   UNIT 1001   STATUS:OLD                 
 FORMAT:FORMATTED              ACCESS:SEQUENTIAL          
 ACTION:READ                

 # File generated by Flopy version 3.3.5 on 01/26/2022 at 09:22:44.

 READING SIMULATION OPTIONS
 END OF SIMULATION OPTIONS

 READING SIMULATION TIMING

 OPENED flow.tdis
 FILE TYPE:TDIS   UNIT 1002   STATUS:OLD                 
 FORMAT:FORMATTED              ACCESS:SEQUENTIAL          
 ACTION:READ                


 TDIS -- TEMPORAL DISCRETIZATION PACKAGE,
 VERSION 1 : 11/13/2014 - INPUT READ FROM UNIT 1002
 # File generated by Flopy version 3.3.5 on 01/26/2022 at 09:22:44.
 PROCESSING TDIS OPTIONS
    SIMULATION TIME UNIT IS DAYS
 END OF TDIS OPTIONS
 PROCESSING TDIS DIMENSIONS
    2 STRESS PERIOD(S) IN SIMULATION
 END OF TDIS DIMENSIONS
 PROCESSING TDIS PERIODDATA


 STRESS PERIOD     LENGTH       TIME STEPS     MULTIPLIER FOR DELT
 ----------------------------------------------------------------------------
        1         730.0000          1                    1.000
        2         29270.00          1                    1.000
 END OF TDIS PERIODDATA
 END OF SIMULATION TIMING

 READING SIMULATION MODELS
    GWF6 model FLOW will be created as model 1
 END OF SIMULATION MODELS

 READING SIMULATION EXCHANGES
 END OF SIMULATION EXCHANGES

 READING SOLUTIONGROUP

 Creating solution: SLN_1           

 OPENED flow.ims
 FILE TYPE:IMS   UNIT 1012   STATUS:OLD                 
 FORMAT:FORMATTED              ACCESS:SEQUENTIAL          
 ACTION:READ                

 END OF SIMULATION SOLUTIONGROUP

 IMS -- ITERATIVE MODEL SOLUTION PACKAGE, VERSION 6, 4/28/2017
         INPUT READ FROM UNIT 1012
 # File generated by Flopy version 3.3.5 on 01/26/2022 at 09:22:44.

 PROCESSING IMS OPTIONS
 COMPLEX OPTION:
 DEFAULT SOLVER INPUT VALUES REFLECT STRONGLY NONLINEAR MODEL
 PSEUDO-TRANSIENT CONTINUATION DISABLED FOR ALL STRESS-PERIOD(S)
 END OF IMS OPTIONS

 PROCESSING IMS NONLINEAR
 END OF IMS NONLINEAR DATA
 **UNDER-RELAXATION WILL BE USED***
 
 ***IMS LINEAR SOLVER WILL BE USED***

 IMSLINEAR -- UNSTRUCTURED LINEAR SOLUTION PACKAGE, VERSION 8, 04/28/2017

 PROCESSING LINEAR DATA
 END OF LINEAR DATA
 
 OUTER ITERATION CONVERGENCE CRITERION    (DVCLOSE) =    0.100000E-03
 MAXIMUM NUMBER OF OUTER ITERATIONS        (MXITER) = 2000
 SOLVER PRINTOUT INDEX                     (IPRIMS) = 1
 NONLINEAR ITERATION METHOD            (NONLINMETH) = 3
 LINEAR SOLUTION METHOD                   (LINMETH) = 1
 UNDER-RELAXATION WEIGHT REDUCTION FACTOR   (THETA) =    0.700000E+00
 UNDER-RELAXATION WEIGHT INCREASE INCREMENT (KAPPA) =    0.800000E-01
 UNDER-RELAXATION PREVIOUS HISTORY FACTOR   (GAMMA) =    0.500000E-01
 UNDER-RELAXATION MOMENTUM TERM         (AMOMENTUM) =    0.000000E+00
 MAXIMUM NUMBER OF BACKTRACKS            (NUMTRACK) = 20
 BACKTRACKING TOLERANCE FACTOR               (BTOL) =    0.200000E+01
 BACKTRACKING REDUCTION FACTOR             (BREDUC) =    0.200000E+00
 BACKTRACKING RESIDUAL LIMIT              (RES_LIM) =    0.500000E-03

       SOLUTION BY THE BICONJUGATE-GRADIENT STABILIZED METHOD
 ------------------------------------------------------------------
 MAXIMUM OF 2000 CALLS OF SOLUTION ROUTINE
 MAXIMUM OF 100 INTERNAL ITERATIONS PER CALL TO SOLUTION ROUTINE
 LINEAR ACCELERATION METHOD            = BCGS      
 MATRIX PRECONDITIONING TYPE           = INCOMPLETE LUT      
 MATRIX SCALING APPROACH               = NO SCALING          
 MATRIX REORDERING APPROACH            = ORIGINAL ORDERING        
 NUMBER OF ORTHOGONALIZATIONS          = 2
 HEAD CHANGE CRITERION FOR CLOSURE     =    0.10000E-04
 RESIDUAL CHANGE CRITERION FOR CLOSURE =    0.10000E-03
 RESIDUAL CONVERGENCE OPTION           = 3
 RESIDUAL CONVERGENCE NORM             = RELATIVE L2NORM 
 RELAXATION FACTOR                     =    0.00000E+00
 NUMBER OF LEVELS                      =              8
 DROP TOLERANCE                        =    0.10000E-02


 
    Solving:  Stress period:     1    Time step:     1
 
1
                            STRESS PERIOD NO. 1, LENGTH =   730.0000    
                            -----------------------------------------------
                            NUMBER OF TIME STEPS = 1
                            MULTIPLIER FOR DELT =     1.000
                            INITIAL TIME STEP SIZE =   730.0000    

 SLN_1 OUTER ITERATION SUMMARY
 ----------------------------------------------------------------------------------------------------------------------------------------------------------------
                                OUTER      INNER  BACKTRACK  BACKTRACK        INCOMING        OUTGOING                    STEP   MAXIMUM CHANGE MODEL-(CELLID) OR
 OUTER ITERATION STEP       ITERATION  ITERATION       FLAG ITERATIONS        RESIDUAL        RESIDUAL  MAXIMUM CHANGE SUCCESS             MODEL-PACKAGE-(NUMBER)
 ----------------------------------------------------------------------------------------------------------------------------------------------------------------
 Backtracking                       1                     0          0       1359.1239       1359.1239                       *                                   
 Model                              1         26                                                        1.03455019E+08                            1_GWF-(1,1,169)
 Backtracking                       2                     1          8  3.33886303E+09       1359.1204                                                           
 Model                              2         29                                                        1.03493217E+08                            1_GWF-(1,1,169)
 Backtracking                       3                     1          8  3.34010438E+09       1545.3943                                                           
 Model                              3         26                                                        1.83055205E+08                           1_GWF-(36,1,171)
 Backtracking                       4                     1          8  4.74241573E+09       1510.3161                                                           
 Model                              4         28                                                        1.31456197E+08                           1_GWF-(35,1,168)
 Backtracking                       5                     1          8  1.99882817E+09       1803.4421                                                           
 Model                              5         27                                                             94380855.                           1_GWF-(35,1,168)
 Backtracking                       6                     1          8  2.41279801E+09       2376.6577                                                           
 Model                              6         27                                                        1.26934655E+08                           1_GWF-(29,1,172)
 Backtracking                       7                     1          8  3.33021661E+09       2352.8840                                                           
 Model                              7         72                                                             99836390.                           1_GWF-(32,1,172)
 Backtracking                       8                     1          8  2.69826405E+09       4003.9038                                                           
 Model                              8         66                                                             93960907.                           1_GWF-(31,1,167)
 Backtracking                       9                     1          8  1.90935177E+09       3979.7376                                                           
 Model                              9         64                                                        1.13344521E+08                           1_GWF-(28,1,167)
 Backtracking                      10                     1          8  1.58074067E+09       4873.9008                                                           
 Model                             10         67                                                             67518848.                           1_GWF-(22,1,166)
 Backtracking                      11                     1          7  1.70635580E+09       5793.2424                                                           
 Model                             11         70                                                             59796173.                           1_GWF-(19,1,165)
 Backtracking                      12                     1          7  1.60978229E+09       6876.2421                                                           
 Model                             12         65                                                             62212292.                           1_GWF-(18,1,174)
 Backtracking                      13                     1          8  1.80787359E+09       6884.3732                                                           
 Model                             13         66                                                        1.76805505E+08                           1_GWF-(21,1,164)
 Backtracking                      14                     1          8  2.17659006E+09       6869.9198                                                           
 Model                             14         65                                                        1.77782083E+08                           1_GWF-(20,1,164)
 Backtracking                      15                     1          8  2.19990375E+09       8807.5091                                                           
 Model                             15         66                                                             78037317.                           1_GWF-(20,1,163)
 Backtracking                      16                     1          7  1.48454177E+09       13277.164                                                           
 Model                             16         40                                                        1.18900959E+08                            1_GWF-(1,1,176)
 Backtracking                      17                     1          7  5.36986080E+09       14103.733                                                           
 Model                             17         16                                                             19650.034                           1_GWF-(26,1,193)
 Backtracking                      18                     1          2       287076.19       13719.765                                                           
 Model                             18         16                                                             11055.727                           1_GWF-(25,1,175)
 Backtracking                      19                     1          1       161074.48       24699.164                                                           
 Model                             19          9                                                             3872.0411                           1_GWF-(21,1,161)
 Backtracking                      20                     1          1       91770.219       22399.737                                                           
 Model                             20          8                                                             1175.1425                            1_GWF-(1,1,194)
 Backtracking                      21                     0          0       14785.549       14785.549                       *                                   
 Model                             21          8                                                             1975.1575                            1_GWF-(6,1,195)
 Backtracking                      22                     0          0       15109.062       15109.062                       *                                   
 Model                             22          5                                                             1397.8693                            1_GWF-(3,1,196)
 Backtracking                      23                     0          0       14085.179       14085.179                       *                                   
 Model                             23          6                                                             1397.9305                           1_GWF-(32,1,197)
 Backtracking                      24                     0          0       14114.081       14114.081                       *                                   
 Model                             24          5                                                             1393.7411                            1_GWF-(5,1,198)
 Backtracking                      25                     0          0       13939.881       13939.881                       *                                   
 Model                             25          6                                                             1410.0391                            1_GWF-(1,1,199)
 Backtracking                      26                     0          0       14072.613       14072.613                       *                                   
 Model                             26          5                                                             1394.5363                            1_GWF-(1,1,200)
 Backtracking                      27                     0          0       10937.866       10937.866                       *                                   
 Model                             27          5                                                             4405.5817                           1_GWF-(29,1,201)
 Backtracking                      28                     1          1       24269.442       8952.2458                                                           
 Model                             28          7                                                             3538.1558                           1_GWF-(27,1,201)
 Backtracking                      29                     1          1       26435.307       8262.2973                                                           
 Model                             29          7                                                             9551.9690                           1_GWF-(34,1,153)
 Backtracking                      30                     1          2       110577.08       7988.4955                                                           
 Model                             30          7                                                             4130.2101                           1_GWF-(34,1,153)
 Backtracking                      31                     1          1       49023.870       12544.253                                                           
 Model                             31          6                                                             3746.8359                           1_GWF-(34,1,202)
 Backtracking                      32                     1          1       26775.509       10463.295                                                           
 Model                             32          6                                                             2007.0617                           1_GWF-(19,1,202)
 Backtracking                      33                     0          0       16163.232       16163.232                       *                                   
 Model                             33          5                                                             3154.8775                           1_GWF-(18,1,204)
 Backtracking                      34                     0          0       18985.190       18985.190                       *                                   
 Model                             34          5                                                             1387.2471                            1_GWF-(1,1,205)
 Backtracking                      35                     0          0       11943.390       11943.390                       *                                   
 Model                             35          6                                                             3180.8106                           1_GWF-(16,1,206)
 Backtracking                      36                     0          0       18698.937       18698.937                       *                                   
 Model                             36          5                                                             1387.4493                            1_GWF-(1,1,207)
 Backtracking                      37                     0          0       11847.826       11847.826                       *                                   
 Model                             37          6                                                             3189.1683                           1_GWF-(18,1,208)
 Backtracking                      38                     0          0       18668.698       18668.698                       *                                   
 Model                             38          4                                                             1392.9452                            1_GWF-(1,1,209)
 Backtracking                      39                     0          0       11785.686       11785.686                       *                                   
 Model                             39          6                                                             3141.2211                           1_GWF-(18,1,210)
 Backtracking                      40                     0          0       18406.635       18406.635                       *                                   
 Model                             40          4                                                             1394.0333                            1_GWF-(1,1,211)
 Backtracking                      41                     0          0       11680.051       11680.051                       *                                   
 Model                             41          6                                                             3139.8205                           1_GWF-(18,1,212)
 Backtracking                      42                     0          0       18349.641       18349.641                       *                                   
 Model                             42          4                                                             1394.4657                            1_GWF-(1,1,213)
 Backtracking                      43                     0          0       11650.326       11650.326                       *                                   
 Model                             43          6                                                             3150.5113                           1_GWF-(18,1,214)
 Backtracking                      44                     0          0       18371.697       18371.697                       *                                   
 Model                             44          4                                                             1393.8736                            1_GWF-(1,1,215)
 Backtracking                      45                     0          0       11603.085       11603.085                       *                                   
 Model                             45          7                                                             3073.1525                           1_GWF-(19,1,216)
 Backtracking                      46                     0          0       18274.001       18274.001                       *                                   
 Model                             46          4                                                             1395.9725                            1_GWF-(6,1,217)
 Backtracking                      47                     0          0       8559.2596       8559.2596                       *                                   
 Model                             47          7                                                             3876.5672                           1_GWF-(29,1,137)
 Backtracking                      48                     1          1       24794.449       7450.8288                                                           
 Model                             48          7                                                             2923.8624                           1_GWF-(26,1,137)
 Backtracking                      49                     1          1       25253.612       6715.2233                                                           
 Model                             49          7                                                             2349.8300                           1_GWF-(14,1,218)
 Backtracking                      50                     1          1       22430.089       6870.9792                                                           
 Model                             50          8                                                             4782.6055                           1_GWF-(34,1,219)
 Backtracking                      51                     1          1       31627.408       6539.5805                                                           
 Model                             51          8                                                             4408.8171                           1_GWF-(21,1,135)
 Backtracking                      52                     1          1       25384.767       5899.2243                                                           
 Model                             52          8                                                             3991.9874                           1_GWF-(26,1,220)
 Backtracking                      53                     1          1       32570.000       5492.1339                                                           
 Model                             53          8                                                             4621.3060                           1_GWF-(21,1,221)
 Backtracking                      54                     1          1       29903.044       5471.2186                                                           
 Model                             54          9                                                             4288.7043                           1_GWF-(20,1,221)
 Backtracking                      55                     1          1       41166.738       9519.7226                                                           
 Model                             55          7                                                             3405.9799                           1_GWF-(29,1,222)
 Backtracking                      56                     0          0       14873.200       14873.200                       *                                   
 Model                             56          7                                                             2680.5986                           1_GWF-(17,1,132)
 Backtracking                      57                     0          0       13944.187       13944.187                       *                                   
 Model                             57          4                                                             3040.3349                           1_GWF-(18,1,224)
 Backtracking                      58                     0          0       15964.466       15964.466                       *                                   
 Model                             58          5                                                             2860.6975                           1_GWF-(17,1,130)
 Backtracking                      59                     0          0       15464.666       15464.666                       *                                   
 Model                             59          4                                                             2986.7696                           1_GWF-(19,1,226)
 Backtracking                      60                     0          0       16313.195       16313.195                       *                                   
 Model                             60          5                                                             2696.3596                           1_GWF-(18,1,128)
 Backtracking                      61                     0          0       14898.027       14898.027                       *                                   
 Model                             61          5                                                             3063.5674                           1_GWF-(19,1,228)
 Backtracking                      62                     0          0       16653.240       16653.240                       *                                   
 Model                             62          5                                                             2675.3964                           1_GWF-(18,1,126)
 Backtracking                      63                     0          0       14871.792       14871.792                       *                                   
 Model                             63          5                                                             2932.6499                           1_GWF-(20,1,230)
 Backtracking                      64                     0          0       16153.779       16153.779                       *                                   
 Model                             64          5                                                             2679.3087                           1_GWF-(18,1,124)
 Backtracking                      65                     0          0       14773.455       14773.455                       *                                   
 Model                             65          5                                                             2973.1565                           1_GWF-(20,1,232)
 Backtracking                      66                     0          0       16394.763       16394.763                       *                                   
 Model                             66          5                                                             2687.9269                           1_GWF-(18,1,122)
 Backtracking                      67                     0          0       14885.069       14885.069                       *                                   
 Model                             67          5                                                             3013.9651                           1_GWF-(20,1,234)
 Backtracking                      68                     0          0       16677.592       16677.592                       *                                   
 Model                             68          5                                                             2535.9919                           1_GWF-(18,1,120)
 Backtracking                      69                     0          0       14225.592       14225.592                       *                                   
 Model                             69         12                                                             3233.1457                           1_GWF-(19,1,236)
 Backtracking                      70                     0          0       17669.294       17669.294                       *                                   
 Model                             70         19                                                             1290.6504                           1_GWF-(36,1,237)
 Backtracking                      71                     0          0       8467.8493       8467.8493                       *                                   
 Model                             71         23                                                            -1530.2488                            1_GWF-(3,1,141)
 Backtracking                      72                     0          0       6966.5688       6966.5688                       *                                   
 Model                             72         19                                                             2063.8680                           1_GWF-(31,1,239)
 Backtracking                      73                     1          1       20755.635       6249.2361                                                           
 Model                             73         18                                                            -1856.8778                            1_GWF-(9,1,136)
 Backtracking                      74                     1          1       15319.275       5852.7657                                                           
 Model                             74         18                                                            -1422.0284                           1_GWF-(16,1,128)
 Backtracking                      75                     0          0       4985.1953       4985.1953                       *                                   
 Model                             75         37                                                             8591.0732                           1_GWF-(32,1,241)
 Backtracking                      76                     1          2       184349.24       5224.3531                                                           
 Model                             76         32                                                             8071.9052                           1_GWF-(33,1,241)
 Backtracking                      77                     1          2       149344.19       5338.4922                                                           
 Model                             77         36                                                             4652.7652                           1_GWF-(19,1,240)
 Backtracking                      78                     1          2       161354.14       5608.4658                                                           
 Model                             78         34                                                             5859.4705                           1_GWF-(10,1,212)
 Backtracking                      79                     1          2       132512.01       5571.2079                                                           
 Model                             79         32                                                             4738.2616                           1_GWF-(31,1,242)
 Backtracking                      80                     1          2       109493.63       5487.6854                                                           
 Model                             80         35                                                             4488.3460                            1_GWF-(1,1,128)
 Backtracking                      81                     1          2       144059.51       5466.1433                                                           
 Model                             81         31                                                             4232.9651                           1_GWF-(32,1,243)
 Backtracking                      82                     1          2       110690.34       5348.0293                                                           
 Model                             82         25                                                             2459.8547                           1_GWF-(36,1,244)
 Backtracking                      83                     1          1       68067.857       6317.8811                                                           
 Model                             83         23                                                             746.90738                           1_GWF-(22,1,245)
 Backtracking                      84                     0          0       9128.6449       9128.6449                       *                                   
 Model                             84         11                                                            -468.73496                           1_GWF-(15,1,245)
 Backtracking                      85                     0          0       2016.9026       2016.9026                       *                                   
 Model                             85         14                                                            -302.64284                            1_GWF-(8,1,245)
 Backtracking                      86                     0          0       680.93286       680.93286                       *                                   
 Model                             86          8                                                             191.06407                            1_GWF-(8,1,246)
 Backtracking                      87                     0          0       300.22736       300.22736                       *                                   
 Model                             87         31                                                            -171.31261                            1_GWF-(1,1,194)
 Backtracking                      88                     1          1       1401.9842       371.47024                                                           
 Model                             88         47                                                            -761.58392                            1_GWF-(1,1,196)
 Backtracking                      89                     1          2       7264.5062       677.23699                                                           
 Model                             89         46                                                            -976.56269                            1_GWF-(6,1,233)
 Backtracking                      90                     1          2       6319.3501       968.45724                                                           
 Model                             90         41                                                            -1175.6173                            1_GWF-(4,1,195)
 Backtracking                      91                     1          2       5476.7688       1201.2962                                                           
 Model                             91         40                                                            -1311.2176                            1_GWF-(4,1,195)
 Backtracking                      92                     1          1       4358.0995       1960.6846                                                           
 Model                             92         32                                                            -1026.6807                           1_GWF-(20,1,231)
 Backtracking                      93                     0          0       3017.8696       3017.8696                       *                                   
 Model                             93         70                                                             52093106.                           1_GWF-(36,1,227)
 Backtracking                      94                     1          7  4.47131115E+08       5089.8750                                                           
 Model                             94         73                                                             6729209.4                            1_GWF-(4,1,223)
 Backtracking                      95                     1          6  1.33286851E+08       6150.7529                                                           
 Model                             95         66                                                             6987534.5                           1_GWF-(33,1,229)
 Backtracking                      96                     1          6  1.80895900E+08       7074.5067                                                           
 Model                             96         63                                                             8528554.0                           1_GWF-(19,1,225)
 Backtracking                      97                     1          6  2.28824843E+08       8563.8348                                                           
 Model                             97         19                                                             21244.594                           1_GWF-(24,1,123)
 Backtracking                      98                     1          2       691068.83       13542.250                                                           
 Model                             98         14                                                             5046.3532                            1_GWF-(1,1,231)
 Backtracking                      99                     1          1       74065.743       14160.982                                                           
 Model                             99          9                                                             5504.0198                           1_GWF-(30,1,235)
 Backtracking                     100                     1          1       48282.984       15382.997                                                           
 Model                            100         13                                                             3526.9553                           1_GWF-(23,1,120)
 Backtracking                     101                     0          0       27341.328       27341.328                       *                                   
 Model                            101          4                                                             2273.0450                           1_GWF-(15,1,237)
 Backtracking                     102                     0          0       15917.676       15917.676                       *                                   
 Model                            102          7                                                             1262.0028                            1_GWF-(1,1,238)
 Backtracking                     103                     0          0       7790.2461       7790.2461                       *                                   
 Model                            103         14                                                             2616.3301                           1_GWF-(18,1,239)
 Backtracking                     104                     0          0       14640.107       14640.107                       *                                   
 Model                            104          5                                                             1204.4836                           1_GWF-(18,1,240)
 Backtracking                     105                     0          0       7283.9167       7283.9167                       *                                   
 Model                            105         39                                                            -1275.0953                            1_GWF-(2,1,241)
 Backtracking                     106                     0          0       6906.1563       6906.1563                       *                                   
 Model                            106         30                                                            -3165.2970                            1_GWF-(1,1,224)
 Backtracking                     107                     0          0       5380.8921       5380.8921                       *                                   
 Model                            107         11                                                            -2260.3732                            1_GWF-(1,1,227)
 Backtracking                     108                     0          0       7991.9074       7991.9074                       *                                   
 Model                            108         11                                                             1188.2570                           1_GWF-(12,1,227)
 Backtracking                     109                     0          0       4020.9743       4020.9743                       *                                   
 Model                            109         11                                                             4179.5252                           1_GWF-(35,1,133)
 Backtracking                     110                     1          1       28040.287       4550.1745                                                           
 Model                            110          9                                                             925.36765                           1_GWF-(37,1,132)
 Backtracking                     111                     0          0       2113.2365       2113.2365                       *                                   
 Model                            111         13                                                             1589.2972                           1_GWF-(30,1,131)
 Backtracking                     112                     1          1       6288.3012       1872.6892                                                           
 Model                            112         13                                                             1247.8411                            1_GWF-(7,1,131)
 Backtracking                     113                     1          1       6474.3652       1616.9748                                                           
 Model                            113         14                                                             590.99300                           1_GWF-(23,1,132)
 Backtracking                     114                     1          1       4024.1393       1398.1659                                                           
 Model                            114         14                                                             491.36822                           1_GWF-(23,1,132)
 Backtracking                     115                     1          1       4113.8851       1587.0265                                                           
 Model                            115         14                                                             2212.3161                           1_GWF-(30,1,130)
 Backtracking                     116                     1          1       13961.214       1381.4054                                                           
 Model                            116         13                                                             955.89201                           1_GWF-(27,1,130)
 Backtracking                     117                     1          1       7367.4834       1172.5118                                                           
 Model                            117         13                                                             843.03556                           1_GWF-(28,1,130)
 Backtracking                     118                     1          1       8658.1437       1622.8742                                                           
 Model                            118         14                                                             3202.4799                           1_GWF-(35,1,129)
 Backtracking                     119                     1          1       11893.621       1553.5832                                                           
 Model                            119         13                                                             1393.7682                            1_GWF-(1,1,129)
 Backtracking                     120                     1          1       6638.5757       1634.0568                                                           
 Model                            120          8                                                             2385.2825                           1_GWF-(26,1,128)
 Backtracking                     121                     1          1       14999.629       1353.4090                                                           
 Model                            121         10                                                             595.30017                            1_GWF-(1,1,129)
 Backtracking                     122                     1          1       3175.0391       1151.7168                                                           
 Model                            122         13                                                             489.06406                           1_GWF-(36,1,128)
 Backtracking                     123                     1          1       3169.9773       1238.3569                                                           
 Model                            123         14                                                             3424.1224                           1_GWF-(36,1,127)
 Backtracking                     124                     1          1       19386.474       1511.8793                                                           
 Model                            124          9                                                             1174.7007                           1_GWF-(17,1,127)
 Backtracking                     125                     1          1       7823.9175       1809.4043                                                           
 Model                            125          8                                                             1388.5095                           1_GWF-(34,1,126)
 Backtracking                     126                     1          1       8060.5301       1519.1581                                                           
 Model                            126          9                                                             963.22698                           1_GWF-(24,1,126)
 Backtracking                     127                     1          1       8614.2326       1393.3113                                                           
 Model                            127         11                                                             2608.2501                           1_GWF-(36,1,125)
 Backtracking                     128                     1          1       10296.155       1283.6130                                                           
 Model                            128          8                                                             1521.0366                           1_GWF-(32,1,125)
 Backtracking                     129                     1          1       8595.6723       1286.6636                                                           
 Model                            129          8                                                             1638.2996                           1_GWF-(31,1,124)
 Backtracking                     130                     1          1       11505.934       1043.1879                                                           
 Model                            130         14                                                             1300.1720                           1_GWF-(26,1,124)
 Backtracking                     131                     1          1       13226.865       1733.1424                                                           
 Model                            131         10                                                             3708.2637                           1_GWF-(35,1,123)
 Backtracking                     132                     1          1       14916.885       2013.6004                                                           
 Model                            132          7                                                             910.25368                           1_GWF-(18,1,123)
 Backtracking                     133                     0          0       3094.4409       3094.4409                       *                                   
 Model                            133          4                                                             1361.7265                            1_GWF-(4,1,121)
 Backtracking                     134                     0          0       5983.4888       5983.4888                       *                                   
 Model                            134         11                                                             516.80436                           1_GWF-(28,1,120)
 Backtracking                     135                     0          0       2363.6233       2363.6233                       *                                   
 Model                            135         16                                                            -412.82486                           1_GWF-(14,1,120)
 Backtracking                     136                     0          0       1693.5794       1693.5794                       *                                   
 Model                            136         18                                                             7151.2981                           1_GWF-(24,1,240)
 Backtracking                     137                     1          2       30513.220       1789.6327                                                           
 Model                            137         17                                                            -297.48053                           1_GWF-(20,1,189)
 Backtracking                     138                     0          0       1192.1862       1192.1862                       *                                   
 Model                            138         27                                                            -178.59038                           1_GWF-(13,1,180)
 Backtracking                     139                     0          0       874.57145       874.57145                       *                                   
 Model                            139         22                                                            -400.95981                            1_GWF-(5,1,121)
 Backtracking                     140                     0          0       662.96491       662.96491                       *                                   
 Model                            140         23                                                            -362.29455                           1_GWF-(13,1,121)
 Backtracking                     141                     0          0       468.40107       468.40107                       *                                   
 Model                            141         16                                                            -186.44564                           1_GWF-(13,1,121)
 Backtracking                     142                     0          0       262.51399       262.51399                       *                                   
 Model                            142         28                                                            -93.496663                           1_GWF-(13,1,121)
 Backtracking                     143                     0          0       155.65554       155.65554                       *                                   
 Model                            143         13                                                            -44.830793                           1_GWF-(25,1,240)
 Backtracking                     144                     0          0       96.246196       96.246196                       *                                   
 Model                            144         20                                                             31.852148                           1_GWF-(20,1,189)
 Backtracking                     145                     0          0       58.538618       58.538618                       *                                   
 Model                            145         17                                                            -18.375260                           1_GWF-(25,1,240)
 Backtracking                     146                     0          0       33.471848       33.471848                       *                                   
 Model                            146         21                                                            -9.6782091                           1_GWF-(25,1,240)
 Backtracking                     147                     0          0       17.012004       17.012004                       *                                   
 Model                            147         21                                                            -5.2131927                           1_GWF-(16,1,181)
 Backtracking                     148                     0          0       7.6428628       7.6428628                       *                                   
 Model                            148         21                                                            -2.4365071                           1_GWF-(16,1,181)
 Backtracking                     149                     0          0       3.1698237       3.1698237                       *                                   
 Model                            149         21                                                           -0.94690762                           1_GWF-(16,1,181)
 Backtracking                     150                     0          0       1.2200227       1.2200227                       *                                   
 Model                            150         19                                                           -0.29207385                           1_GWF-(16,1,181)
 Backtracking                     151                     0          0      0.43272753      0.43272753                       *                                   
 Model                            151         19                                                       -6.67236885E-02                           1_GWF-(16,1,181)
 Backtracking                     152                     0          0      0.13723539      0.13723539                       *                                   
 Model                            152          4                                                       -1.58612683E-02                           1_GWF-(15,1,237)
 Backtracking                     153                     0          0  3.64220899E-02  3.64220899E-02                       *                                   
 Model                            153          6                                                       -4.24124707E-03                           1_GWF-(32,1,215)
 Backtracking                     154                     0          0  7.56480399E-03  7.56480399E-03                       *                                   
 Model                            154         12                                                       -1.04014984E-03                           1_GWF-(32,1,215)
 Backtracking                     155                     0          0  1.49366788E-03  1.49366788E-03                       *                                   
 Model                            155         13                                                       -2.16776430E-04                           1_GWF-(28,1,137)
 Backtracking                     156                     0          0  8.01995576E-04  8.01995576E-04                       *                                   
 Model                            156         18                                                       -3.41544673E-04                           1_GWF-(53,1,243)
 Backtracking                     157                     0          0  1.17759938E-03  1.17759938E-03                       *                                   
 Model                            157          5                                                       -5.35244384E-05       *                   1_GWF-(52,1,186)
 ----------------------------------------------------------------------------------------------------------------------------------------------------------------


 157 CALLS TO NUMERICAL SOLUTION IN TIME STEP 1 STRESS PERIOD 1
 2926 TOTAL ITERATIONS
 
    Solving:  Stress period:     2    Time step:     1
 
1
                            STRESS PERIOD NO. 2, LENGTH =   29270.00    
                            -----------------------------------------------
                            NUMBER OF TIME STEPS = 1
                            MULTIPLIER FOR DELT =     1.000
                            INITIAL TIME STEP SIZE =   29270.00    

 SLN_1 OUTER ITERATION SUMMARY
 ----------------------------------------------------------------------------------------------------------------------------------------------------------------
                                OUTER      INNER  BACKTRACK  BACKTRACK        INCOMING        OUTGOING                    STEP   MAXIMUM CHANGE MODEL-(CELLID) OR
 OUTER ITERATION STEP       ITERATION  ITERATION       FLAG ITERATIONS        RESIDUAL        RESIDUAL  MAXIMUM CHANGE SUCCESS             MODEL-PACKAGE-(NUMBER)
 ----------------------------------------------------------------------------------------------------------------------------------------------------------------
 Backtracking                       1                     0          0  1.42874822E-06  1.42874822E-06                       *                                   
 Model                              1          1                                                       -7.63888329E-06       *                   1_GWF-(68,1,371)
 ----------------------------------------------------------------------------------------------------------------------------------------------------------------


 1 CALLS TO NUMERICAL SOLUTION IN TIME STEP 1 STRESS PERIOD 2
 1 TOTAL ITERATIONS

 MEMORY MANAGER TOTAL STORAGE BY DATA TYPE, IN MEGABYTES
 -------------------------------
                    ALLOCATED   
 DATA TYPE           MEMORY     
 -------------------------------
 Character        3.98500000E-03
 Logical          4.40000000E-05
 Integer          9.2224000     
 Real             17.153160     
 -------------------------------
 Total            26.379589     
 -------------------------------


 
 Run end date and time (yyyy/mm/dd hh:mm:ss): 2022/01/26  9:22:51
 Elapsed run time:  7.056 Seconds
 Normal termination of simulation.
