                                   MODFLOW 6
                U.S. GEOLOGICAL SURVEY MODULAR HYDROLOGIC MODEL
                       GROUNDWATER TRANSPORT MODEL (GWT)
                            VERSION 6.2.2 07/30/2021

   MODFLOW 6 compiled Jul 30 2021 14:34:58 with IFORT compiler (ver. 19.10.2)

This software has been approved for release by the U.S. Geological 
Survey (USGS). Although the software has been subjected to rigorous 
review, the USGS reserves the right to update the software as needed 
pursuant to further analysis and review. No warranty, expressed or 
implied, is made by the USGS or the U.S. Government as to the 
functionality of the software and related material nor shall the 
fact of release constitute any such warranty. Furthermore, the 
software is released on condition that neither the USGS nor the U.S. 
Government shall be held liable for any damages resulting from its 
authorized or unauthorized use. Also refer to the USGS Water 
Resources Software User Rights Notice for complete use, copyright, 
and distribution information.


System command used to initiate simulation:
mf6

MODFLOW was compiled using uniform precision.

Real Variables
  KIND: 8
  TINY (smallest non-zero value):    2.225074-308
  HUGE (largest value):    1.797693+308
  PRECISION: 15
  BIT SIZE: 64

Integer Variables
  KIND: 4
  HUGE (largest value): 2147483647
  BIT SIZE: 32

Long Integer Variables
  KIND: 8
  HUGE (largest value): 9223372036854775807
  BIT SIZE: 64

Logical Variables
  KIND: 4
  BIT SIZE: 32
 

 OPENED .\trans.dis
 FILE TYPE:DIS6                   UNIT 1005   STATUS:OLD                 
 FORMAT:FORMATTED              ACCESS:SEQUENTIAL          
 ACTION:READ                


 OPENED .\trans.ic
 FILE TYPE:IC6                    UNIT 1006   STATUS:OLD                 
 FORMAT:FORMATTED              ACCESS:SEQUENTIAL          
 ACTION:READ                


 OPENED .\trans.mst
 FILE TYPE:MST6                   UNIT 1007   STATUS:OLD                 
 FORMAT:FORMATTED              ACCESS:SEQUENTIAL          
 ACTION:READ                


 OPENED .\trans.adv
 FILE TYPE:ADV6                   UNIT 1008   STATUS:OLD                 
 FORMAT:FORMATTED              ACCESS:SEQUENTIAL          
 ACTION:READ                


 OPENED .\trans.dsp
 FILE TYPE:DSP6                   UNIT 1009   STATUS:OLD                 
 FORMAT:FORMATTED              ACCESS:SEQUENTIAL          
 ACTION:READ                


 OPENED .\trans.fmi
 FILE TYPE:FMI6                   UNIT 1010   STATUS:OLD                 
 FORMAT:FORMATTED              ACCESS:SEQUENTIAL          
 ACTION:READ                


 OPENED .\trans.sft
 FILE TYPE:SFT6                   UNIT 1011   STATUS:OLD                 
 FORMAT:FORMATTED              ACCESS:SEQUENTIAL          
 ACTION:READ                


 OPENED .\trans.ssm
 FILE TYPE:SSM6                   UNIT 1012   STATUS:OLD                 
 FORMAT:FORMATTED              ACCESS:SEQUENTIAL          
 ACTION:READ                


 OPENED .\trans.oc
 FILE TYPE:OC6                    UNIT 1013   STATUS:OLD                 
 FORMAT:FORMATTED              ACCESS:SEQUENTIAL          
 ACTION:READ                


 OPENED .\trans.obs
 FILE TYPE:OBS6                   UNIT 1014   STATUS:OLD                 
 FORMAT:FORMATTED              ACCESS:SEQUENTIAL          
 ACTION:READ                

 NAMEFILE OPTIONS:
    FLOWS WILL BE SAVED TO BUDGET FILE SPECIFIED IN OUTPUT CONTROL

 DIS -- STRUCTURED GRID DISCRETIZATION PACKAGE, VERSION 2 : 3/27/2014 - INPUT READ FROM UNIT 1005


 # File generated by Flopy version 3.3.5 on 01/25/2022 at 16:56:39.
 PROCESSING DISCRETIZATION OPTIONS
    UNKNOWN UNIT: 
    M
    SETTING TO: 
    UNDEFINED
 END OF DISCRETIZATION OPTIONS
 MODEL LENGTH UNIT IS UNDEFINED
 PROCESSING DISCRETIZATION DIMENSIONS
    NLAY =      80
    NROW =       1
    NCOL =     400
 END OF DISCRETIZATION DIMENSIONS
 PROCESSING GRIDDATA

                     DELR =   25.00000    

                     DELC =   1.000000    

 TOP ELEVATION OF LAYER 1 =   2000.000    

   MODEL LAYER BOTTOM EL. =   1975.000     FOR LAYER 1

   MODEL LAYER BOTTOM EL. =   1950.000     FOR LAYER 2

   MODEL LAYER BOTTOM EL. =   1925.000     FOR LAYER 3

   MODEL LAYER BOTTOM EL. =   1900.000     FOR LAYER 4

   MODEL LAYER BOTTOM EL. =   1875.000     FOR LAYER 5

   MODEL LAYER BOTTOM EL. =   1850.000     FOR LAYER 6

   MODEL LAYER BOTTOM EL. =   1825.000     FOR LAYER 7

   MODEL LAYER BOTTOM EL. =   1800.000     FOR LAYER 8

   MODEL LAYER BOTTOM EL. =   1775.000     FOR LAYER 9

   MODEL LAYER BOTTOM EL. =   1750.000     FOR LAYER 10

   MODEL LAYER BOTTOM EL. =   1725.000     FOR LAYER 11

   MODEL LAYER BOTTOM EL. =   1700.000     FOR LAYER 12

   MODEL LAYER BOTTOM EL. =   1675.000     FOR LAYER 13

   MODEL LAYER BOTTOM EL. =   1650.000     FOR LAYER 14

   MODEL LAYER BOTTOM EL. =   1625.000     FOR LAYER 15

   MODEL LAYER BOTTOM EL. =   1600.000     FOR LAYER 16

   MODEL LAYER BOTTOM EL. =   1575.000     FOR LAYER 17

   MODEL LAYER BOTTOM EL. =   1550.000     FOR LAYER 18

   MODEL LAYER BOTTOM EL. =   1525.000     FOR LAYER 19

   MODEL LAYER BOTTOM EL. =   1500.000     FOR LAYER 20

   MODEL LAYER BOTTOM EL. =   1475.000     FOR LAYER 21

   MODEL LAYER BOTTOM EL. =   1450.000     FOR LAYER 22

   MODEL LAYER BOTTOM EL. =   1425.000     FOR LAYER 23

   MODEL LAYER BOTTOM EL. =   1400.000     FOR LAYER 24

   MODEL LAYER BOTTOM EL. =   1375.000     FOR LAYER 25

   MODEL LAYER BOTTOM EL. =   1350.000     FOR LAYER 26

   MODEL LAYER BOTTOM EL. =   1325.000     FOR LAYER 27

   MODEL LAYER BOTTOM EL. =   1300.000     FOR LAYER 28

   MODEL LAYER BOTTOM EL. =   1275.000     FOR LAYER 29

   MODEL LAYER BOTTOM EL. =   1250.000     FOR LAYER 30

   MODEL LAYER BOTTOM EL. =   1225.000     FOR LAYER 31

   MODEL LAYER BOTTOM EL. =   1200.000     FOR LAYER 32

   MODEL LAYER BOTTOM EL. =   1175.000     FOR LAYER 33

   MODEL LAYER BOTTOM EL. =   1150.000     FOR LAYER 34

   MODEL LAYER BOTTOM EL. =   1125.000     FOR LAYER 35

   MODEL LAYER BOTTOM EL. =   1100.000     FOR LAYER 36

   MODEL LAYER BOTTOM EL. =   1075.000     FOR LAYER 37

   MODEL LAYER BOTTOM EL. =   1050.000     FOR LAYER 38

   MODEL LAYER BOTTOM EL. =   1025.000     FOR LAYER 39

   MODEL LAYER BOTTOM EL. =   1000.000     FOR LAYER 40

   MODEL LAYER BOTTOM EL. =   975.0000     FOR LAYER 41

   MODEL LAYER BOTTOM EL. =   950.0000     FOR LAYER 42

   MODEL LAYER BOTTOM EL. =   925.0000     FOR LAYER 43

   MODEL LAYER BOTTOM EL. =   900.0000     FOR LAYER 44

   MODEL LAYER BOTTOM EL. =   875.0000     FOR LAYER 45

   MODEL LAYER BOTTOM EL. =   850.0000     FOR LAYER 46

   MODEL LAYER BOTTOM EL. =   825.0000     FOR LAYER 47

   MODEL LAYER BOTTOM EL. =   800.0000     FOR LAYER 48

   MODEL LAYER BOTTOM EL. =   775.0000     FOR LAYER 49

   MODEL LAYER BOTTOM EL. =   750.0000     FOR LAYER 50

   MODEL LAYER BOTTOM EL. =   725.0000     FOR LAYER 51

   MODEL LAYER BOTTOM EL. =   700.0000     FOR LAYER 52

   MODEL LAYER BOTTOM EL. =   675.0000     FOR LAYER 53

   MODEL LAYER BOTTOM EL. =   650.0000     FOR LAYER 54

   MODEL LAYER BOTTOM EL. =   625.0000     FOR LAYER 55

   MODEL LAYER BOTTOM EL. =   600.0000     FOR LAYER 56

   MODEL LAYER BOTTOM EL. =   575.0000     FOR LAYER 57

   MODEL LAYER BOTTOM EL. =   550.0000     FOR LAYER 58

   MODEL LAYER BOTTOM EL. =   525.0000     FOR LAYER 59

   MODEL LAYER BOTTOM EL. =   500.0000     FOR LAYER 60

   MODEL LAYER BOTTOM EL. =   475.0000     FOR LAYER 61

   MODEL LAYER BOTTOM EL. =   450.0000     FOR LAYER 62

   MODEL LAYER BOTTOM EL. =   425.0000     FOR LAYER 63

   MODEL LAYER BOTTOM EL. =   400.0000     FOR LAYER 64

   MODEL LAYER BOTTOM EL. =   375.0000     FOR LAYER 65

   MODEL LAYER BOTTOM EL. =   350.0000     FOR LAYER 66

   MODEL LAYER BOTTOM EL. =   325.0000     FOR LAYER 67

   MODEL LAYER BOTTOM EL. =   300.0000     FOR LAYER 68

   MODEL LAYER BOTTOM EL. =   275.0000     FOR LAYER 69

   MODEL LAYER BOTTOM EL. =   250.0000     FOR LAYER 70

   MODEL LAYER BOTTOM EL. =   225.0000     FOR LAYER 71

   MODEL LAYER BOTTOM EL. =   200.0000     FOR LAYER 72

   MODEL LAYER BOTTOM EL. =   175.0000     FOR LAYER 73

   MODEL LAYER BOTTOM EL. =   150.0000     FOR LAYER 74

   MODEL LAYER BOTTOM EL. =   125.0000     FOR LAYER 75

   MODEL LAYER BOTTOM EL. =   100.0000     FOR LAYER 76

   MODEL LAYER BOTTOM EL. =   75.00000     FOR LAYER 77

   MODEL LAYER BOTTOM EL. =   50.00000     FOR LAYER 78

   MODEL LAYER BOTTOM EL. =   25.00000     FOR LAYER 79

   MODEL LAYER BOTTOM EL. =   0.000000     FOR LAYER 80
 END PROCESSING GRIDDATA

 FMI -- FLOW MODEL INTERFACE, VERSION 1, 8/29/2017 INPUT READ FROM UNIT 1010


 # File generated by Flopy version 3.3.5 on 01/25/2022 at 16:56:39.
 PROCESSING FMI OPTIONS
    MASS WILL BE ADDED OR REMOVED TO COMPENSATE FOR FLOW IMBALANCE.
 END OF FMI OPTIONS
 PROCESSING FMI PACKAGEDATA

 OPENED ../mf6gwf/flow.hds
 FILE TYPE:DATA(BINARY)   UNIT 1016   STATUS:UNKNOWN             
 FORMAT:UNFORMATTED            ACCESS:STREAM              
 ACTION:READWRITE           

Reading binary file to determine number of records per time step.
Detected 80 unique records in binary file.

 OPENED ../mf6gwf/flow.bud
 FILE TYPE:DATA(BINARY)   UNIT 1017   STATUS:UNKNOWN             
 FORMAT:UNFORMATTED            ACCESS:STREAM              
 ACTION:READWRITE           

Reading budget file to determine number of terms per time step.
    730.000        FLOW-JA-FACE                 
    730.000          DATA-SPDIS NPF             
    730.000            DATA-SAT NPF             
    730.000                 RCH RCH-1           
    730.000                 CHD CHD-1           
    730.000                 SFR SFR-1           
Detected 6 unique flow terms in budget file.

 OPENED ../mf6gwf/ex-gwt-keating.sfr.bud
 FILE TYPE:DATA(BINARY)   UNIT 1018   STATUS:UNKNOWN             
 FORMAT:UNFORMATTED            ACCESS:STREAM              
 ACTION:READWRITE           

Reading budget file to determine number of terms per time step.
    730.000        FLOW-JA-FACE SFR-1           
    730.000                 GWF FLOW            
    730.000            RAINFALL SFR-1           
    730.000         EVAPORATION SFR-1           
    730.000              RUNOFF SFR-1           
    730.000          EXT-INFLOW SFR-1           
    730.000         EXT-OUTFLOW SFR-1           
    730.000             STORAGE SFR-1           
    730.000           AUXILIARY SFR-1           
Detected 9 unique flow terms in budget file.
    730.000        FLOW-JA-FACE SFR-1           
    730.000                 GWF FLOW            
    730.000            RAINFALL SFR-1           
    730.000         EVAPORATION SFR-1           
    730.000              RUNOFF SFR-1           
    730.000          EXT-INFLOW SFR-1           
    730.000         EXT-OUTFLOW SFR-1           
    730.000             STORAGE SFR-1           
    730.000           AUXILIARY SFR-1           
 END OF FMI PACKAGEDATA
 # File generated by Flopy version 3.3.5 on 01/25/2022 at 16:56:39.
 PROCESSING DISPERSION OPTIONS
    XT3D FORMULATION HAS BEEN SHUT OFF.
 END OF DISPERSION OPTIONS

 SFT   -- SFT PACKAGE, VERSION 8, 2/22/2014 INPUT READ FROM UNIT 1011
 # File generated by Flopy version 3.3.5 on 01/25/2022 at 16:56:39.

 PROCESSING SFT OPTIONS
    THIS SFT PACKAGE CORRESPONDS TO A GWF PACKAGE WITH THE NAME SFR-1
    SFT BOUNDARIES HAVE NAMES IN LAST COLUMN.
    LISTS OF SFT CELLS WILL BE PRINTED.
    SFT CONCENTRATIONS WILL BE PRINTED TO LISTING FILE.
    SFT FLOWS WILL BE PRINTED TO LISTING FILE.
    FLOWS WILL BE SAVED TO BUDGET FILE SPECIFIED IN OUTPUT CONTROL

 OPENED ex-gwt-keating.sft.bin
 FILE TYPE:DATA(BINARY)   UNIT 1019   STATUS:REPLACE             
 FORMAT:UNFORMATTED            ACCESS:STREAM              
 ACTION:READWRITE           

    SFT CONCENTRATION  WILL BE SAVED TO FILE: ex-gwt-keating.sft.bin
    OPENED ON UNIT:    1019

 OPENED ex-gwt-keating.sft.bud
 FILE TYPE:DATA(BINARY)   UNIT 1020   STATUS:REPLACE             
 FORMAT:UNFORMATTED            ACCESS:STREAM              
 ACTION:READWRITE           

    SFT BUDGET  WILL BE SAVED TO FILE: ex-gwt-keating.sft.bud
    OPENED ON UNIT:    1020

 OPENED ex-gwt-keating.sft.obs
 FILE TYPE:OBS   UNIT 1021   STATUS:OLD                 
 FORMAT:FORMATTED              ACCESS:SEQUENTIAL          
 ACTION:READ                

 END OF SFT OPTIONS

PROCESSING SFT INFORMATION FOR SFR-1           
  IDENTIFYING FLOW TERMS IN SFR PACKAGE
  NUMBER OF SFR = 24
  TERM 1 = FLOW-JA-FACE
   MAX NO. OF ENTRIES = 46
  TERM 2 = GWF
   MAX NO. OF ENTRIES = 24
  TERM 3 = RAINFALL
   MAX NO. OF ENTRIES = 24
  TERM 4 = EVAPORATION
   MAX NO. OF ENTRIES = 24
  TERM 5 = RUNOFF
   MAX NO. OF ENTRIES = 24
  TERM 6 = EXT-INFLOW
   MAX NO. OF ENTRIES = 24
  TERM 7 = EXT-OUTFLOW
   MAX NO. OF ENTRIES = 24
  TERM 8 = STORAGE
   MAX NO. OF ENTRIES = 24
  TERM 9 = AUXILIARY
   MAX NO. OF ENTRIES = 24
DONE PROCESSING SFT INFORMATION


SETTING DIMENSIONS FOR PACKAGE SFR-1           
  NUMBER OF CONTROL VOLUMES = 24
  MAXBOUND = 24
  NBOUND = 24
  SFT SOLVED AS PART OF GWT MATRIX EQUATIONS
DONE SETTING DIMENSIONS FOR SFT



 PROCESSING SFT PACKAGEDATA
 END OF SFT PACKAGEDATA

 IC -- INITIAL CONDITIONS PACKAGE, VERSION 8, 3/28/2015 INPUT READ FROM UNIT 1006
 # File generated by Flopy version 3.3.5 on 01/25/2022 at 16:56:39.
 PROCESSING GRIDDATA

 INITIAL CONCENTRATION =   0.000000    
 END PROCESSING GRIDDATA

 MST -- MOBILE STORAGE AND TRANSFER PACKAGE, VERSION 1, 7/29/2020 INPUT READ FROM UNIT 1007


 # File generated by Flopy version 3.3.5 on 01/25/2022 at 16:56:39.
 PROCESSING MOBILE STORAGE AND TRANSFER OPTIONS
 END OF MOBILE STORAGE AND TRANSFER OPTIONS
 PROCESSING GRIDDATA

   MOBILE DOMAIN POROSITY =  0.1000000    
 END PROCESSING GRIDDATA

 ADV-- ADVECTION PACKAGE, VERSION 1, 8/25/2017 INPUT READ FROM UNIT 1008


 # File generated by Flopy version 3.3.5 on 01/25/2022 at 16:56:39.
 PROCESSING ADVECTION OPTIONS
    ADVECTION WEIGHTING SCHEME HAS BEEN SET TO: UPSTREAM
 SELECTED ADVECTION SCHEME RESULTS IN AN ASYMMETRIC MATRIX.
 END OF ADVECTION OPTIONS

 DSP-- DISPERSION PACKAGE, VERSION 1, 1/24/2018 INPUT READ FROM UNIT 1009


 PROCESSING GRIDDATA

                      ALH =   1.000000    

                     ATH1 =   1.000000    

                      ATV =   1.000000    
 END PROCESSING GRIDDATA

 SSM -- SOURCE-SINK MIXING PACKAGE, VERSION 1, 8/25/2017 INPUT READ FROM UNIT 1012


 # File generated by Flopy version 3.3.5 on 01/25/2022 at 16:56:39.
 PROCESSING SSM OPTIONS
 END OF SSM OPTIONS
 PROCESSING SOURCES
 AUX SOURCE DETECTED.
    USING AUX COLUMN 1 IN PACKAGE RCH-1
 AUX SOURCE DETECTED.
    USING AUX COLUMN 1 IN PACKAGE SFR-1
 END PROCESSING SOURCES

The observation utility is active for "TRANS"
 # File generated by Flopy version 3.3.5 on 01/25/2022 at 16:56:39.

Processing observation options:

Text output number of digits of precision set to: 10
The PRINT_INPUT option has been specified.


 OBSERVATIONS READ FROM FILE "trans.obs"
 ----------------------------------------------------------------------------------------------------------------------------------------------------------------------------------------------------------------------------
 NAME                                     TYPE                                       TIME         LOCATION DATA                              OUTPUT FILENAME                                                                 
 ----------------------------------------------------------------------------------------------------------------------------------------------------------------------------------------------------------------------------
 OBS1                                     CONTINUOUS  CONCENTRATION                  ALL TIMES    "49 1 119"                                 trans.obs.csv                                                                   
 OBS2                                     CONTINUOUS  CONCENTRATION                  ALL TIMES    "77 1 359"                                 trans.obs.csv                                                                   
 ----------------------------------------------------------------------------------------------------------------------------------------------------------------------------------------------------------------------------


      THE LAST TIME STEP WILL BE PRINTED
      THE LAST TIME STEP WILL BE PRINTED
 # File generated by Flopy version 3.3.5 on 01/25/2022 at 16:56:39.

 PROCESSING OC OPTIONS

    BUDGET INFORMATION WILL BE WRITTEN TO:
      UNIT NUMBER: 1023
      FILE NAME: trans.cbc

 OPENED trans.cbc
 FILE TYPE:DATA(BINARY)   UNIT 1023   STATUS:REPLACE             
 FORMAT:UNFORMATTED            ACCESS:STREAM              
 ACTION:READWRITE           

    CONCENTRATION INFORMATION WILL BE WRITTEN TO:
      UNIT NUMBER: 1024
      FILE NAME: trans.ucn

 OPENED trans.ucn
 FILE TYPE:DATA(BINARY)   UNIT 1024   STATUS:REPLACE             
 FORMAT:UNFORMATTED            ACCESS:STREAM              
 ACTION:READWRITE           

 END OF OC OPTIONS

The observation utility is active for "SFR-1"
 # File generated by Flopy version 3.3.5 on 01/25/2022 at 16:56:39.

Processing observation options:

Text output number of digits of precision set to:  7
The PRINT_INPUT option has been specified.


 OBSERVATIONS READ FROM FILE "ex-gwt-keating.sft.obs"
 ----------------------------------------------------------------------------------------------------------------------------------------------------------------------------------------------------------------------------
 NAME                                     TYPE                                       TIME         LOCATION DATA                              OUTPUT FILENAME                                                                 
 ----------------------------------------------------------------------------------------------------------------------------------------------------------------------------------------------------------------------------
 SFTREACH1LEAKAGE                         CONTINUOUS  CONCENTRATION                  ALL TIMES    "SFTREACH1"                                ex-gwt-keating.sft.obs.csv                                                      
 SFTREACH12LEAKAGE                        CONTINUOUS  CONCENTRATION                  ALL TIMES    "SFTREACH12"                               ex-gwt-keating.sft.obs.csv                                                      
 SFTREACH24LEAKAGE                        CONTINUOUS  CONCENTRATION                  ALL TIMES    "SFTREACH24"                               ex-gwt-keating.sft.obs.csv                                                      
 ----------------------------------------------------------------------------------------------------------------------------------------------------------------------------------------------------------------------------



 APT -- ADVANCED PACKAGE TRANSPORT, VERSION 1, 3/5/2020 INPUT READ FROM UNIT 1011



start timestep kper="1" kstp="1" mode="normal"


 BEGIN READING OUTPUT CONTROL FOR STRESS PERIOD 1
      THE FOLLOWING STEPS WILL BE SAVED: 10 
      THE LAST TIME STEP WILL BE SAVED
      THE FOLLOWING FREQUENCY WILL BE SAVED: 10
      THE LAST TIME STEP WILL BE PRINTED
      ALL TIME STEPS WILL BE PRINTED

 END READING OUTPUT CONTROL FOR STRESS PERIOD 1

 SFT PACKAGE (SFR-1) DATA FOR PERIOD      1
 ---------------------------------------------------------------
   NUMBER   KEYWORD                  VALUE 1         VALUE 2    
 ---------------------------------------------------------------
     1      CONCENTRATION              1.0                      
     2      CONCENTRATION              1.0                      
 ---------------------------------------------------------------



 FMI READING BUDGET TERMS FOR KSTP 1 KPER 1
    730.000        FLOW-JA-FACE                 
    730.000          DATA-SPDIS NPF             
    730.000            DATA-SAT NPF             
    730.000                 RCH RCH-1           
    730.000                 CHD CHD-1           
    730.000                 SFR SFR-1           

 FMI READING HEAD FOR KSTP 1 KPER 1

 SFR-1 SETTING BUDGET TERMS FOR KSTP 1 AND KPER 1 TO BUDGET FILE TERMS FROM KSTP 1 AND KPER 1

 SFT PACKAGE (SFR-1) FLOW RATES   PERIOD      1   STEP        1
 ----------------------------------------------------------------------------------------
   NUMBER   CELLID                    RATE       NAME                                    
 ----------------------------------------------------------------------------------------
     1      (1,1,169)             4.42282409E-02 SFTREACH1                               
     2      (1,1,170)             5.81636664E-02 SFTREACH2                               
     3      (1,1,171)             0.0000000      SFTREACH3                               
     4      (1,1,172)             0.0000000      SFTREACH4                               
     5      (1,1,173)             0.0000000      SFTREACH5                               
     6      (1,1,174)             0.0000000      SFTREACH6                               
     7      (1,1,175)             0.0000000      SFTREACH7                               
     8      (1,1,176)             0.0000000      SFTREACH8                               
     9      (1,1,177)             0.0000000      SFTREACH9                               
     10     (1,1,178)             0.0000000      SFTREACH10                              
     11     (1,1,179)             0.0000000      SFTREACH11                              
     12     (1,1,180)             0.0000000      SFTREACH12                              
     13     (1,1,181)             0.0000000      SFTREACH13                              
     14     (1,1,182)             0.0000000      SFTREACH14                              
     15     (1,1,183)             0.0000000      SFTREACH15                              
     16     (1,1,184)             0.0000000      SFTREACH16                              
     17     (1,1,185)             0.0000000      SFTREACH17                              
     18     (1,1,186)             0.0000000      SFTREACH18                              
     19     (1,1,187)             0.0000000      SFTREACH19                              
     20     (1,1,188)             0.0000000      SFTREACH20                              
     21     (1,1,189)             0.0000000      SFTREACH21                              
     22     (1,1,190)             0.0000000      SFTREACH22                              
     23     (1,1,191)             0.0000000      SFTREACH23                              
     24     (1,1,192)             0.0000000      SFTREACH24                              
 ----------------------------------------------------------------------------------------




 SFR-1 PACKAGE - SUMMARY OF FLOWS FOR EACH CONTROL VOLUME   PERIOD      1   STEP        1
 ----------------------------------------------------------------------------------------------------------------------------------------------------------------------
                                                                                                                                                             PERCENT   
   NUMBER      INFLOW      OUTFLOW        GWF        RAINFALL   EVAPORATION     RUNOFF     EXT INFLOW  EXT OUTFLOW    STORAGE      CONSTANT     IN - OUT    DIFFERENCE 
 ----------------------------------------------------------------------------------------------------------------------------------------------------------------------
     1       0.0000      -4.28989E-02 -4.42282E-02  0.0000       0.0000       0.0000       0.0000       0.0000       8.71271E-02  0.0000       5.55112E-16  6.37128E-13
     2       4.28989E-02  0.0000      -5.81637E-02  0.0000       0.0000       0.0000       0.0000       0.0000       1.52648E-02  0.0000       0.0000       0.0000     
     3       0.0000       0.0000       0.0000       0.0000       0.0000       0.0000       0.0000       0.0000       0.0000       0.0000       0.0000       0.0000     
     4       0.0000       0.0000       0.0000       0.0000       0.0000       0.0000       0.0000       0.0000       0.0000       0.0000       0.0000       0.0000     
     5       0.0000       0.0000       0.0000       0.0000       0.0000       0.0000       0.0000       0.0000       0.0000       0.0000       0.0000       0.0000     
     6       0.0000       0.0000       0.0000       0.0000       0.0000       0.0000       0.0000       0.0000       0.0000       0.0000       0.0000       0.0000     
     7       0.0000       0.0000       0.0000       0.0000       0.0000       0.0000       0.0000       0.0000       0.0000       0.0000       0.0000       0.0000     
     8       0.0000       0.0000       0.0000       0.0000       0.0000       0.0000       0.0000       0.0000       0.0000       0.0000       0.0000       0.0000     
     9       0.0000       0.0000       0.0000       0.0000       0.0000       0.0000       0.0000       0.0000       0.0000       0.0000       0.0000       0.0000     
     10      0.0000       0.0000       0.0000       0.0000       0.0000       0.0000       0.0000       0.0000       0.0000       0.0000       0.0000       0.0000     
     11      0.0000       0.0000       0.0000       0.0000       0.0000       0.0000       0.0000       0.0000       0.0000       0.0000       0.0000       0.0000     
     12      0.0000       0.0000       0.0000       0.0000       0.0000       0.0000       0.0000       0.0000       0.0000       0.0000       0.0000       0.0000     
     13      0.0000       0.0000       0.0000       0.0000       0.0000       0.0000       0.0000       0.0000       0.0000       0.0000       0.0000       0.0000     
     14      0.0000       0.0000       0.0000       0.0000       0.0000       0.0000       0.0000       0.0000       0.0000       0.0000       0.0000       0.0000     
     15      0.0000       0.0000       0.0000       0.0000       0.0000       0.0000       0.0000       0.0000       0.0000       0.0000       0.0000       0.0000     
     16      0.0000       0.0000       0.0000       0.0000       0.0000       0.0000       0.0000       0.0000       0.0000       0.0000       0.0000       0.0000     
     17      0.0000       0.0000       0.0000       0.0000       0.0000       0.0000       0.0000       0.0000       0.0000       0.0000       0.0000       0.0000     
     18      0.0000       0.0000       0.0000       0.0000       0.0000       0.0000       0.0000       0.0000       0.0000       0.0000       0.0000       0.0000     
     19      0.0000       0.0000       0.0000       0.0000       0.0000       0.0000       0.0000       0.0000       0.0000       0.0000       0.0000       0.0000     
     20      0.0000       0.0000       0.0000       0.0000       0.0000       0.0000       0.0000       0.0000       0.0000       0.0000       0.0000       0.0000     
     21      0.0000       0.0000       0.0000       0.0000       0.0000       0.0000       0.0000       0.0000       0.0000       0.0000       0.0000       0.0000     
     22      0.0000       0.0000       0.0000       0.0000       0.0000       0.0000       0.0000       0.0000       0.0000       0.0000       0.0000       0.0000     
     23      0.0000       0.0000       0.0000       0.0000       0.0000       0.0000       0.0000       0.0000       0.0000       0.0000       0.0000       0.0000     
     24      0.0000       0.0000       0.0000       0.0000       0.0000       0.0000       0.0000       0.0000       0.0000       0.0000       0.0000       0.0000     
 ----------------------------------------------------------------------------------------------------------------------------------------------------------------------




  SFR-1 BUDGET FOR ENTIRE MODEL AT END OF TIME STEP    1, STRESS PERIOD   1
  ------------------------------------------------------------------------------

     CUMULATIVE SFR-1      M       RATES FOR THIS TIME STEP      M/T
     ------------------                 ------------------------

           IN:                                      IN:
           ---                                      ---
                 GWF =           0.0000                   GWF =           0.0000
            RAINFALL =           0.0000              RAINFALL =           0.0000
         EVAPORATION =           0.0000           EVAPORATION =           0.0000
              RUNOFF =           0.0000                RUNOFF =           0.0000
          EXT-INFLOW =           0.0000            EXT-INFLOW =           0.0000
         EXT-OUTFLOW =           0.0000           EXT-OUTFLOW =           0.0000
             STORAGE =           1.0239               STORAGE =           0.1024
            CONSTANT =           0.0000              CONSTANT =           0.0000

            TOTAL IN =           1.0239              TOTAL IN =           0.1024

          OUT:                                     OUT:
          ----                                     ----
                 GWF =           1.0239                   GWF =           0.1024
            RAINFALL =           0.0000              RAINFALL =           0.0000
         EVAPORATION =           0.0000           EVAPORATION =           0.0000
              RUNOFF =           0.0000                RUNOFF =           0.0000
          EXT-INFLOW =           0.0000            EXT-INFLOW =           0.0000
         EXT-OUTFLOW =           0.0000           EXT-OUTFLOW =           0.0000
             STORAGE =           0.0000               STORAGE =           0.0000
            CONSTANT =           0.0000              CONSTANT =           0.0000

           TOTAL OUT =           1.0239             TOTAL OUT =           0.1024

            IN - OUT =       5.5511E-15              IN - OUT =       5.5511E-16

 PERCENT DISCREPANCY =           0.00     PERCENT DISCREPANCY =           0.00



  MASS BUDGET FOR ENTIRE MODEL AT END OF TIME STEP    1, STRESS PERIOD   1
  ---------------------------------------------------------------------------------------------------

     CUMULATIVE MASS      M       RATES FOR THIS TIME STEP      M/T          PACKAGE NAME    
     ------------------                 ------------------------                     ----------------

           IN:                                      IN:
           ---                                      ---
     STORAGE-AQUEOUS =           0.0000       STORAGE-AQUEOUS =           0.0000     MST             
               RCH-1 =           0.0000                 RCH-1 =           0.0000     SSM             
               CHD-1 =           0.0000                 CHD-1 =           0.0000     SSM             
     FLOW-CORRECTION =       2.3561E-11       FLOW-CORRECTION =       2.3561E-12                     
                 SFT =           1.0239                   SFT =           0.1024     SFR-1           

            TOTAL IN =           1.0239              TOTAL IN =           0.1024

          OUT:                                     OUT:
          ----                                     ----
     STORAGE-AQUEOUS =           1.0239       STORAGE-AQUEOUS =           0.1024     MST             
               RCH-1 =           0.0000                 RCH-1 =           0.0000     SSM             
               CHD-1 =      1.1015E-116                 CHD-1 =      1.1015E-117     SSM             
     FLOW-CORRECTION =       1.7403E-10       FLOW-CORRECTION =       1.7403E-11                     
                 SFT =           0.0000                   SFT =           0.0000     SFR-1           

           TOTAL OUT =           1.0239             TOTAL OUT =           0.1024

            IN - OUT =      -3.0586E-07              IN - OUT =      -3.0586E-08

 PERCENT DISCREPANCY =          -0.00     PERCENT DISCREPANCY =          -0.00




         TIME SUMMARY AT END OF TIME STEP    1 IN STRESS PERIOD    1
                    SECONDS     MINUTES      HOURS       DAYS        YEARS
                    -----------------------------------------------------------
   TIME STEP LENGTH 8.64000E+05  14400.      240.00      10.000     2.73785E-02
 STRESS PERIOD TIME 8.64000E+05  14400.      240.00      10.000     2.73785E-02
         TOTAL TIME 8.64000E+05  14400.      240.00      10.000     2.73785E-02


end timestep


start timestep kper="1" kstp="2" mode="normal"


 FMI SETTING BUDGET TERMS FOR KSTP 2 AND KPER 1 TO BUDGET FILE TERMS FROM KSTP 1 AND KPER 1

 FMI SETTING HEAD FOR KSTP 2 AND KPER 1 TO BINARY FILE HEADS FROM KSTP 1 AND KPER 1

 SFR-1 SETTING BUDGET TERMS FOR KSTP 2 AND KPER 1 TO BUDGET FILE TERMS FROM KSTP 1 AND KPER 1

 SFT PACKAGE (SFR-1) FLOW RATES   PERIOD      1   STEP        2
 ----------------------------------------------------------------------------------------
   NUMBER   CELLID                    RATE       NAME                                    
 ----------------------------------------------------------------------------------------
     1      (1,1,169)             8.92009034E-05 SFTREACH1                               
     2      (1,1,170)             1.28283270E-04 SFTREACH2                               
     3      (1,1,171)             0.0000000      SFTREACH3                               
     4      (1,1,172)             0.0000000      SFTREACH4                               
     5      (1,1,173)             0.0000000      SFTREACH5                               
     6      (1,1,174)             0.0000000      SFTREACH6                               
     7      (1,1,175)             0.0000000      SFTREACH7                               
     8      (1,1,176)             0.0000000      SFTREACH8                               
     9      (1,1,177)             0.0000000      SFTREACH9                               
     10     (1,1,178)             0.0000000      SFTREACH10                              
     11     (1,1,179)             0.0000000      SFTREACH11                              
     12     (1,1,180)             0.0000000      SFTREACH12                              
     13     (1,1,181)             0.0000000      SFTREACH13                              
     14     (1,1,182)             0.0000000      SFTREACH14                              
     15     (1,1,183)             0.0000000      SFTREACH15                              
     16     (1,1,184)             0.0000000      SFTREACH16                              
     17     (1,1,185)             0.0000000      SFTREACH17                              
     18     (1,1,186)             0.0000000      SFTREACH18                              
     19     (1,1,187)             0.0000000      SFTREACH19                              
     20     (1,1,188)             0.0000000      SFTREACH20                              
     21     (1,1,189)             0.0000000      SFTREACH21                              
     22     (1,1,190)             0.0000000      SFTREACH22                              
     23     (1,1,191)             0.0000000      SFTREACH23                              
     24     (1,1,192)             0.0000000      SFTREACH24                              
 ----------------------------------------------------------------------------------------




 SFR-1 PACKAGE - SUMMARY OF FLOWS FOR EACH CONTROL VOLUME   PERIOD      1   STEP        2
 ----------------------------------------------------------------------------------------------------------------------------------------------------------------------
                                                                                                                                                             PERCENT   
   NUMBER      INFLOW      OUTFLOW        GWF        RAINFALL   EVAPORATION     RUNOFF     EXT INFLOW  EXT OUTFLOW    STORAGE      CONSTANT     IN - OUT    DIFFERENCE 
 ----------------------------------------------------------------------------------------------------------------------------------------------------------------------
     1       0.0000      -8.65198E-05 -8.92009E-05  0.0000       0.0000       0.0000       0.0000       0.0000       1.75721E-04  0.0000       2.01481E-12  1.14660E-06
     2       8.65198E-05  0.0000      -1.28283E-04  0.0000       0.0000       0.0000       0.0000       0.0000       4.17635E-05  0.0000       3.52998E-13  2.75171E-07
     3       0.0000       0.0000       0.0000       0.0000       0.0000       0.0000       0.0000       0.0000       0.0000       0.0000       0.0000       0.0000     
     4       0.0000       0.0000       0.0000       0.0000       0.0000       0.0000       0.0000       0.0000       0.0000       0.0000       0.0000       0.0000     
     5       0.0000       0.0000       0.0000       0.0000       0.0000       0.0000       0.0000       0.0000       0.0000       0.0000       0.0000       0.0000     
     6       0.0000       0.0000       0.0000       0.0000       0.0000       0.0000       0.0000       0.0000       0.0000       0.0000       0.0000       0.0000     
     7       0.0000       0.0000       0.0000       0.0000       0.0000       0.0000       0.0000       0.0000       0.0000       0.0000       0.0000       0.0000     
     8       0.0000       0.0000       0.0000       0.0000       0.0000       0.0000       0.0000       0.0000       0.0000       0.0000       0.0000       0.0000     
     9       0.0000       0.0000       0.0000       0.0000       0.0000       0.0000       0.0000       0.0000       0.0000       0.0000       0.0000       0.0000     
     10      0.0000       0.0000       0.0000       0.0000       0.0000       0.0000       0.0000       0.0000       0.0000       0.0000       0.0000       0.0000     
     11      0.0000       0.0000       0.0000       0.0000       0.0000       0.0000       0.0000       0.0000       0.0000       0.0000       0.0000       0.0000     
     12      0.0000       0.0000       0.0000       0.0000       0.0000       0.0000       0.0000       0.0000       0.0000       0.0000       0.0000       0.0000     
     13      0.0000       0.0000       0.0000       0.0000       0.0000       0.0000       0.0000       0.0000       0.0000       0.0000       0.0000       0.0000     
     14      0.0000       0.0000       0.0000       0.0000       0.0000       0.0000       0.0000       0.0000       0.0000       0.0000       0.0000       0.0000     
     15      0.0000       0.0000       0.0000       0.0000       0.0000       0.0000       0.0000       0.0000       0.0000       0.0000       0.0000       0.0000     
     16      0.0000       0.0000       0.0000       0.0000       0.0000       0.0000       0.0000       0.0000       0.0000       0.0000       0.0000       0.0000     
     17      0.0000       0.0000       0.0000       0.0000       0.0000       0.0000       0.0000       0.0000       0.0000       0.0000       0.0000       0.0000     
     18      0.0000       0.0000       0.0000       0.0000       0.0000       0.0000       0.0000       0.0000       0.0000       0.0000       0.0000       0.0000     
     19      0.0000       0.0000       0.0000       0.0000       0.0000       0.0000       0.0000       0.0000       0.0000       0.0000       0.0000       0.0000     
     20      0.0000       0.0000       0.0000       0.0000       0.0000       0.0000       0.0000       0.0000       0.0000       0.0000       0.0000       0.0000     
     21      0.0000       0.0000       0.0000       0.0000       0.0000       0.0000       0.0000       0.0000       0.0000       0.0000       0.0000       0.0000     
     22      0.0000       0.0000       0.0000       0.0000       0.0000       0.0000       0.0000       0.0000       0.0000       0.0000       0.0000       0.0000     
     23      0.0000       0.0000       0.0000       0.0000       0.0000       0.0000       0.0000       0.0000       0.0000       0.0000       0.0000       0.0000     
     24      0.0000       0.0000       0.0000       0.0000       0.0000       0.0000       0.0000       0.0000       0.0000       0.0000       0.0000       0.0000     
 ----------------------------------------------------------------------------------------------------------------------------------------------------------------------




  SFR-1 BUDGET FOR ENTIRE MODEL AT END OF TIME STEP    2, STRESS PERIOD   1
  ------------------------------------------------------------------------------

     CUMULATIVE SFR-1      M       RATES FOR THIS TIME STEP      M/T
     ------------------                 ------------------------

           IN:                                      IN:
           ---                                      ---
                 GWF =           0.0000                   GWF =           0.0000
            RAINFALL =           0.0000              RAINFALL =           0.0000
         EVAPORATION =           0.0000           EVAPORATION =           0.0000
              RUNOFF =           0.0000                RUNOFF =           0.0000
          EXT-INFLOW =           0.0000            EXT-INFLOW =           0.0000
         EXT-OUTFLOW =           0.0000           EXT-OUTFLOW =           0.0000
             STORAGE =           1.0261               STORAGE =       2.1748E-04
            CONSTANT =           0.0000              CONSTANT =           0.0000

            TOTAL IN =           1.0261              TOTAL IN =       2.1748E-04

          OUT:                                     OUT:
          ----                                     ----
                 GWF =           1.0261                   GWF =       2.1748E-04
            RAINFALL =           0.0000              RAINFALL =           0.0000
         EVAPORATION =           0.0000           EVAPORATION =           0.0000
              RUNOFF =           0.0000                RUNOFF =           0.0000
          EXT-INFLOW =           0.0000            EXT-INFLOW =           0.0000
         EXT-OUTFLOW =           0.0000           EXT-OUTFLOW =           0.0000
             STORAGE =           0.0000               STORAGE =           0.0000
            CONSTANT =           0.0000              CONSTANT =           0.0000

           TOTAL OUT =           1.0261             TOTAL OUT =       2.1748E-04

            IN - OUT =       2.3684E-11              IN - OUT =       2.3678E-12

 PERCENT DISCREPANCY =           0.00     PERCENT DISCREPANCY =           0.00



  MASS BUDGET FOR ENTIRE MODEL AT END OF TIME STEP    2, STRESS PERIOD   1
  ---------------------------------------------------------------------------------------------------

     CUMULATIVE MASS      M       RATES FOR THIS TIME STEP      M/T          PACKAGE NAME    
     ------------------                 ------------------------                     ----------------

           IN:                                      IN:
           ---                                      ---
     STORAGE-AQUEOUS =           0.3027       STORAGE-AQUEOUS =       3.0265E-02     MST             
               RCH-1 =           0.0000                 RCH-1 =           0.0000     SSM             
               CHD-1 =           0.0000                 CHD-1 =           0.0000     SSM             
     FLOW-CORRECTION =       2.3868E-11       FLOW-CORRECTION =       3.0781E-14                     
                 SFT =           1.0261                   SFT =       2.1748E-04     SFR-1           

            TOTAL IN =           1.3287              TOTAL IN =       3.0483E-02

          OUT:                                     OUT:
          ----                                     ----
     STORAGE-AQUEOUS =           1.3287       STORAGE-AQUEOUS =       3.0483E-02     MST             
               RCH-1 =           0.0000                 RCH-1 =           0.0000     SSM             
               CHD-1 =      6.3865E-115                 CHD-1 =      6.2763E-116     SSM             
     FLOW-CORRECTION =       4.3135E-10       FLOW-CORRECTION =       2.5732E-11                     
                 SFT =           0.0000                   SFT =           0.0000     SFR-1           

           TOTAL OUT =           1.3287             TOTAL OUT =       3.0483E-02

            IN - OUT =      -3.0717E-07              IN - OUT =      -1.3160E-10

 PERCENT DISCREPANCY =          -0.00     PERCENT DISCREPANCY =          -0.00




         TIME SUMMARY AT END OF TIME STEP    2 IN STRESS PERIOD    1
                    SECONDS     MINUTES      HOURS       DAYS        YEARS
                    -----------------------------------------------------------
   TIME STEP LENGTH 8.64000E+05  14400.      240.00      10.000     2.73785E-02
 STRESS PERIOD TIME 1.72800E+06  28800.      480.00      20.000     5.47570E-02
         TOTAL TIME 1.72800E+06  28800.      480.00      20.000     5.47570E-02


end timestep


start timestep kper="1" kstp="3" mode="normal"


 FMI SETTING BUDGET TERMS FOR KSTP 3 AND KPER 1 TO BUDGET FILE TERMS FROM KSTP 1 AND KPER 1

 FMI SETTING HEAD FOR KSTP 3 AND KPER 1 TO BINARY FILE HEADS FROM KSTP 1 AND KPER 1

 SFR-1 SETTING BUDGET TERMS FOR KSTP 3 AND KPER 1 TO BUDGET FILE TERMS FROM KSTP 1 AND KPER 1

 SFT PACKAGE (SFR-1) FLOW RATES   PERIOD      1   STEP        3
 ----------------------------------------------------------------------------------------
   NUMBER   CELLID                    RATE       NAME                                    
 ----------------------------------------------------------------------------------------
     1      (1,1,169)             1.79903182E-07 SFTREACH1                               
     2      (1,1,170)             2.66619297E-07 SFTREACH2                               
     3      (1,1,171)             0.0000000      SFTREACH3                               
     4      (1,1,172)             0.0000000      SFTREACH4                               
     5      (1,1,173)             0.0000000      SFTREACH5                               
     6      (1,1,174)             0.0000000      SFTREACH6                               
     7      (1,1,175)             0.0000000      SFTREACH7                               
     8      (1,1,176)             0.0000000      SFTREACH8                               
     9      (1,1,177)             0.0000000      SFTREACH9                               
     10     (1,1,178)             0.0000000      SFTREACH10                              
     11     (1,1,179)             0.0000000      SFTREACH11                              
     12     (1,1,180)             0.0000000      SFTREACH12                              
     13     (1,1,181)             0.0000000      SFTREACH13                              
     14     (1,1,182)             0.0000000      SFTREACH14                              
     15     (1,1,183)             0.0000000      SFTREACH15                              
     16     (1,1,184)             0.0000000      SFTREACH16                              
     17     (1,1,185)             0.0000000      SFTREACH17                              
     18     (1,1,186)             0.0000000      SFTREACH18                              
     19     (1,1,187)             0.0000000      SFTREACH19                              
     20     (1,1,188)             0.0000000      SFTREACH20                              
     21     (1,1,189)             0.0000000      SFTREACH21                              
     22     (1,1,190)             0.0000000      SFTREACH22                              
     23     (1,1,191)             0.0000000      SFTREACH23                              
     24     (1,1,192)             0.0000000      SFTREACH24                              
 ----------------------------------------------------------------------------------------




 SFR-1 PACKAGE - SUMMARY OF FLOWS FOR EACH CONTROL VOLUME   PERIOD      1   STEP        3
 ----------------------------------------------------------------------------------------------------------------------------------------------------------------------
                                                                                                                                                             PERCENT   
   NUMBER      INFLOW      OUTFLOW        GWF        RAINFALL   EVAPORATION     RUNOFF     EXT INFLOW  EXT OUTFLOW    STORAGE      CONSTANT     IN - OUT    DIFFERENCE 
 ----------------------------------------------------------------------------------------------------------------------------------------------------------------------
     1       0.0000      -1.74496E-07 -1.79903E-07  0.0000       0.0000       0.0000       0.0000       0.0000       3.54399E-07  0.0000      -1.78053E-16 -5.02408E-08
     2       1.74496E-07  0.0000      -2.66619E-07  0.0000       0.0000       0.0000       0.0000       0.0000       9.21235E-08  0.0000      -4.23178E-17 -1.58720E-08
     3       0.0000       0.0000       0.0000       0.0000       0.0000       0.0000       0.0000       0.0000       0.0000       0.0000       0.0000       0.0000     
     4       0.0000       0.0000       0.0000       0.0000       0.0000       0.0000       0.0000       0.0000       0.0000       0.0000       0.0000       0.0000     
     5       0.0000       0.0000       0.0000       0.0000       0.0000       0.0000       0.0000       0.0000       0.0000       0.0000       0.0000       0.0000     
     6       0.0000       0.0000       0.0000       0.0000       0.0000       0.0000       0.0000       0.0000       0.0000       0.0000       0.0000       0.0000     
     7       0.0000       0.0000       0.0000       0.0000       0.0000       0.0000       0.0000       0.0000       0.0000       0.0000       0.0000       0.0000     
     8       0.0000       0.0000       0.0000       0.0000       0.0000       0.0000       0.0000       0.0000       0.0000       0.0000       0.0000       0.0000     
     9       0.0000       0.0000       0.0000       0.0000       0.0000       0.0000       0.0000       0.0000       0.0000       0.0000       0.0000       0.0000     
     10      0.0000       0.0000       0.0000       0.0000       0.0000       0.0000       0.0000       0.0000       0.0000       0.0000       0.0000       0.0000     
     11      0.0000       0.0000       0.0000       0.0000       0.0000       0.0000       0.0000       0.0000       0.0000       0.0000       0.0000       0.0000     
     12      0.0000       0.0000       0.0000       0.0000       0.0000       0.0000       0.0000       0.0000       0.0000       0.0000       0.0000       0.0000     
     13      0.0000       0.0000       0.0000       0.0000       0.0000       0.0000       0.0000       0.0000       0.0000       0.0000       0.0000       0.0000     
     14      0.0000       0.0000       0.0000       0.0000       0.0000       0.0000       0.0000       0.0000       0.0000       0.0000       0.0000       0.0000     
     15      0.0000       0.0000       0.0000       0.0000       0.0000       0.0000       0.0000       0.0000       0.0000       0.0000       0.0000       0.0000     
     16      0.0000       0.0000       0.0000       0.0000       0.0000       0.0000       0.0000       0.0000       0.0000       0.0000       0.0000       0.0000     
     17      0.0000       0.0000       0.0000       0.0000       0.0000       0.0000       0.0000       0.0000       0.0000       0.0000       0.0000       0.0000     
     18      0.0000       0.0000       0.0000       0.0000       0.0000       0.0000       0.0000       0.0000       0.0000       0.0000       0.0000       0.0000     
     19      0.0000       0.0000       0.0000       0.0000       0.0000       0.0000       0.0000       0.0000       0.0000       0.0000       0.0000       0.0000     
     20      0.0000       0.0000       0.0000       0.0000       0.0000       0.0000       0.0000       0.0000       0.0000       0.0000       0.0000       0.0000     
     21      0.0000       0.0000       0.0000       0.0000       0.0000       0.0000       0.0000       0.0000       0.0000       0.0000       0.0000       0.0000     
     22      0.0000       0.0000       0.0000       0.0000       0.0000       0.0000       0.0000       0.0000       0.0000       0.0000       0.0000       0.0000     
     23      0.0000       0.0000       0.0000       0.0000       0.0000       0.0000       0.0000       0.0000       0.0000       0.0000       0.0000       0.0000     
     24      0.0000       0.0000       0.0000       0.0000       0.0000       0.0000       0.0000       0.0000       0.0000       0.0000       0.0000       0.0000     
 ----------------------------------------------------------------------------------------------------------------------------------------------------------------------




  SFR-1 BUDGET FOR ENTIRE MODEL AT END OF TIME STEP    3, STRESS PERIOD   1
  ------------------------------------------------------------------------------

     CUMULATIVE SFR-1      M       RATES FOR THIS TIME STEP      M/T
     ------------------                 ------------------------

           IN:                                      IN:
           ---                                      ---
                 GWF =           0.0000                   GWF =           0.0000
            RAINFALL =           0.0000              RAINFALL =           0.0000
         EVAPORATION =           0.0000           EVAPORATION =           0.0000
              RUNOFF =           0.0000                RUNOFF =           0.0000
          EXT-INFLOW =           0.0000            EXT-INFLOW =           0.0000
         EXT-OUTFLOW =           0.0000           EXT-OUTFLOW =           0.0000
             STORAGE =           1.0261               STORAGE =       4.4652E-07
            CONSTANT =           0.0000              CONSTANT =           0.0000

            TOTAL IN =           1.0261              TOTAL IN =       4.4652E-07

          OUT:                                     OUT:
          ----                                     ----
                 GWF =           1.0261                   GWF =       4.4652E-07
            RAINFALL =           0.0000              RAINFALL =           0.0000
         EVAPORATION =           0.0000           EVAPORATION =           0.0000
              RUNOFF =           0.0000                RUNOFF =           0.0000
          EXT-INFLOW =           0.0000            EXT-INFLOW =           0.0000
         EXT-OUTFLOW =           0.0000           EXT-OUTFLOW =           0.0000
             STORAGE =           0.0000               STORAGE =           0.0000
            CONSTANT =           0.0000              CONSTANT =           0.0000

           TOTAL OUT =           1.0261             TOTAL OUT =       4.4652E-07

            IN - OUT =       2.3682E-11              IN - OUT =      -2.2037E-16

 PERCENT DISCREPANCY =           0.00     PERCENT DISCREPANCY =          -0.00



  MASS BUDGET FOR ENTIRE MODEL AT END OF TIME STEP    3, STRESS PERIOD   1
  ---------------------------------------------------------------------------------------------------

     CUMULATIVE MASS      M       RATES FOR THIS TIME STEP      M/T          PACKAGE NAME    
     ------------------                 ------------------------                     ----------------

           IN:                                      IN:
           ---                                      ---
     STORAGE-AQUEOUS =           0.5120       STORAGE-AQUEOUS =       2.0938E-02     MST             
               RCH-1 =           0.0000                 RCH-1 =           0.0000     SSM             
               CHD-1 =           0.0000                 CHD-1 =           0.0000     SSM             
     FLOW-CORRECTION =       2.3965E-11       FLOW-CORRECTION =       9.6720E-15                     
                 SFT =           1.0261                   SFT =       4.4652E-07     SFR-1           

            TOTAL IN =           1.5381              TOTAL IN =       2.0939E-02

          OUT:                                     OUT:
          ----                                     ----
     STORAGE-AQUEOUS =           1.5381       STORAGE-AQUEOUS =       2.0939E-02     MST             
               RCH-1 =           0.0000                 RCH-1 =           0.0000     SSM             
               CHD-1 =      2.7437E-113                 CHD-1 =      2.6799E-114     SSM             
     FLOW-CORRECTION =       7.4518E-10       FLOW-CORRECTION =       3.1384E-11                     
                 SFT =           0.0000                   SFT =           0.0000     SFR-1           

           TOTAL OUT =           1.5381             TOTAL OUT =       2.0939E-02

            IN - OUT =      -3.0730E-07              IN - OUT =      -1.2372E-11

 PERCENT DISCREPANCY =          -0.00     PERCENT DISCREPANCY =          -0.00




         TIME SUMMARY AT END OF TIME STEP    3 IN STRESS PERIOD    1
                    SECONDS     MINUTES      HOURS       DAYS        YEARS
                    -----------------------------------------------------------
   TIME STEP LENGTH 8.64000E+05  14400.      240.00      10.000     2.73785E-02
 STRESS PERIOD TIME 2.59200E+06  43200.      720.00      30.000     8.21355E-02
         TOTAL TIME 2.59200E+06  43200.      720.00      30.000     8.21355E-02


end timestep


start timestep kper="1" kstp="4" mode="normal"


 FMI SETTING BUDGET TERMS FOR KSTP 4 AND KPER 1 TO BUDGET FILE TERMS FROM KSTP 1 AND KPER 1

 FMI SETTING HEAD FOR KSTP 4 AND KPER 1 TO BINARY FILE HEADS FROM KSTP 1 AND KPER 1

 SFR-1 SETTING BUDGET TERMS FOR KSTP 4 AND KPER 1 TO BUDGET FILE TERMS FROM KSTP 1 AND KPER 1

 SFT PACKAGE (SFR-1) FLOW RATES   PERIOD      1   STEP        4
 ----------------------------------------------------------------------------------------
   NUMBER   CELLID                    RATE       NAME                                    
 ----------------------------------------------------------------------------------------
     1      (1,1,169)             3.62834379E-10 SFTREACH1                               
     2      (1,1,170)             5.43402453E-10 SFTREACH2                               
     3      (1,1,171)             0.0000000      SFTREACH3                               
     4      (1,1,172)             0.0000000      SFTREACH4                               
     5      (1,1,173)             0.0000000      SFTREACH5                               
     6      (1,1,174)             0.0000000      SFTREACH6                               
     7      (1,1,175)             0.0000000      SFTREACH7                               
     8      (1,1,176)             0.0000000      SFTREACH8                               
     9      (1,1,177)             0.0000000      SFTREACH9                               
     10     (1,1,178)             0.0000000      SFTREACH10                              
     11     (1,1,179)             0.0000000      SFTREACH11                              
     12     (1,1,180)             0.0000000      SFTREACH12                              
     13     (1,1,181)             0.0000000      SFTREACH13                              
     14     (1,1,182)             0.0000000      SFTREACH14                              
     15     (1,1,183)             0.0000000      SFTREACH15                              
     16     (1,1,184)             0.0000000      SFTREACH16                              
     17     (1,1,185)             0.0000000      SFTREACH17                              
     18     (1,1,186)             0.0000000      SFTREACH18                              
     19     (1,1,187)             0.0000000      SFTREACH19                              
     20     (1,1,188)             0.0000000      SFTREACH20                              
     21     (1,1,189)             0.0000000      SFTREACH21                              
     22     (1,1,190)             0.0000000      SFTREACH22                              
     23     (1,1,191)             0.0000000      SFTREACH23                              
     24     (1,1,192)             0.0000000      SFTREACH24                              
 ----------------------------------------------------------------------------------------




 SFR-1 PACKAGE - SUMMARY OF FLOWS FOR EACH CONTROL VOLUME   PERIOD      1   STEP        4
 ----------------------------------------------------------------------------------------------------------------------------------------------------------------------
                                                                                                                                                             PERCENT   
   NUMBER      INFLOW      OUTFLOW        GWF        RAINFALL   EVAPORATION     RUNOFF     EXT INFLOW  EXT OUTFLOW    STORAGE      CONSTANT     IN - OUT    DIFFERENCE 
 ----------------------------------------------------------------------------------------------------------------------------------------------------------------------
     1       0.0000      -3.51929E-10 -3.62834E-10  0.0000       0.0000       0.0000       0.0000       0.0000       7.14763E-10  0.0000       1.13997E-17  1.59489E-06
     2       3.51929E-10  0.0000      -5.43402E-10  0.0000       0.0000       0.0000       0.0000       0.0000       1.91474E-10  0.0000       2.96326E-18  5.45316E-07
     3       0.0000       0.0000       0.0000       0.0000       0.0000       0.0000       0.0000       0.0000       0.0000       0.0000       0.0000       0.0000     
     4       0.0000       0.0000       0.0000       0.0000       0.0000       0.0000       0.0000       0.0000       0.0000       0.0000       0.0000       0.0000     
     5       0.0000       0.0000       0.0000       0.0000       0.0000       0.0000       0.0000       0.0000       0.0000       0.0000       0.0000       0.0000     
     6       0.0000       0.0000       0.0000       0.0000       0.0000       0.0000       0.0000       0.0000       0.0000       0.0000       0.0000       0.0000     
     7       0.0000       0.0000       0.0000       0.0000       0.0000       0.0000       0.0000       0.0000       0.0000       0.0000       0.0000       0.0000     
     8       0.0000       0.0000       0.0000       0.0000       0.0000       0.0000       0.0000       0.0000       0.0000       0.0000       0.0000       0.0000     
     9       0.0000       0.0000       0.0000       0.0000       0.0000       0.0000       0.0000       0.0000       0.0000       0.0000       0.0000       0.0000     
     10      0.0000       0.0000       0.0000       0.0000       0.0000       0.0000       0.0000       0.0000       0.0000       0.0000       0.0000       0.0000     
     11      0.0000       0.0000       0.0000       0.0000       0.0000       0.0000       0.0000       0.0000       0.0000       0.0000       0.0000       0.0000     
     12      0.0000       0.0000       0.0000       0.0000       0.0000       0.0000       0.0000       0.0000       0.0000       0.0000       0.0000       0.0000     
     13      0.0000       0.0000       0.0000       0.0000       0.0000       0.0000       0.0000       0.0000       0.0000       0.0000       0.0000       0.0000     
     14      0.0000       0.0000       0.0000       0.0000       0.0000       0.0000       0.0000       0.0000       0.0000       0.0000       0.0000       0.0000     
     15      0.0000       0.0000       0.0000       0.0000       0.0000       0.0000       0.0000       0.0000       0.0000       0.0000       0.0000       0.0000     
     16      0.0000       0.0000       0.0000       0.0000       0.0000       0.0000       0.0000       0.0000       0.0000       0.0000       0.0000       0.0000     
     17      0.0000       0.0000       0.0000       0.0000       0.0000       0.0000       0.0000       0.0000       0.0000       0.0000       0.0000       0.0000     
     18      0.0000       0.0000       0.0000       0.0000       0.0000       0.0000       0.0000       0.0000       0.0000       0.0000       0.0000       0.0000     
     19      0.0000       0.0000       0.0000       0.0000       0.0000       0.0000       0.0000       0.0000       0.0000       0.0000       0.0000       0.0000     
     20      0.0000       0.0000       0.0000       0.0000       0.0000       0.0000       0.0000       0.0000       0.0000       0.0000       0.0000       0.0000     
     21      0.0000       0.0000       0.0000       0.0000       0.0000       0.0000       0.0000       0.0000       0.0000       0.0000       0.0000       0.0000     
     22      0.0000       0.0000       0.0000       0.0000       0.0000       0.0000       0.0000       0.0000       0.0000       0.0000       0.0000       0.0000     
     23      0.0000       0.0000       0.0000       0.0000       0.0000       0.0000       0.0000       0.0000       0.0000       0.0000       0.0000       0.0000     
     24      0.0000       0.0000       0.0000       0.0000       0.0000       0.0000       0.0000       0.0000       0.0000       0.0000       0.0000       0.0000     
 ----------------------------------------------------------------------------------------------------------------------------------------------------------------------




  SFR-1 BUDGET FOR ENTIRE MODEL AT END OF TIME STEP    4, STRESS PERIOD   1
  ------------------------------------------------------------------------------

     CUMULATIVE SFR-1      M       RATES FOR THIS TIME STEP      M/T
     ------------------                 ------------------------

           IN:                                      IN:
           ---                                      ---
                 GWF =           0.0000                   GWF =           0.0000
            RAINFALL =           0.0000              RAINFALL =           0.0000
         EVAPORATION =           0.0000           EVAPORATION =           0.0000
              RUNOFF =           0.0000                RUNOFF =           0.0000
          EXT-INFLOW =           0.0000            EXT-INFLOW =           0.0000
         EXT-OUTFLOW =           0.0000           EXT-OUTFLOW =           0.0000
             STORAGE =           1.0261               STORAGE =       9.0624E-10
            CONSTANT =           0.0000              CONSTANT =           0.0000

            TOTAL IN =           1.0261              TOTAL IN =       9.0624E-10

          OUT:                                     OUT:
          ----                                     ----
                 GWF =           1.0261                   GWF =       9.0624E-10
            RAINFALL =           0.0000              RAINFALL =           0.0000
         EVAPORATION =           0.0000           EVAPORATION =           0.0000
              RUNOFF =           0.0000                RUNOFF =           0.0000
          EXT-INFLOW =           0.0000            EXT-INFLOW =           0.0000
         EXT-OUTFLOW =           0.0000           EXT-OUTFLOW =           0.0000
             STORAGE =           0.0000               STORAGE =           0.0000
            CONSTANT =           0.0000              CONSTANT =           0.0000

           TOTAL OUT =           1.0261             TOTAL OUT =       9.0624E-10

            IN - OUT =       2.3682E-11              IN - OUT =       1.4363E-17

 PERCENT DISCREPANCY =           0.00     PERCENT DISCREPANCY =           0.00



  MASS BUDGET FOR ENTIRE MODEL AT END OF TIME STEP    4, STRESS PERIOD   1
  ---------------------------------------------------------------------------------------------------

     CUMULATIVE MASS      M       RATES FOR THIS TIME STEP      M/T          PACKAGE NAME    
     ------------------                 ------------------------                     ----------------

           IN:                                      IN:
           ---                                      ---
     STORAGE-AQUEOUS =           0.6769       STORAGE-AQUEOUS =       1.6482E-02     MST             
               RCH-1 =           0.0000                 RCH-1 =           0.0000     SSM             
               CHD-1 =           0.0000                 CHD-1 =           0.0000     SSM             
     FLOW-CORRECTION =       2.4007E-11       FLOW-CORRECTION =       4.1931E-15                     
                 SFT =           1.0261                   SFT =       9.0624E-10     SFR-1           

            TOTAL IN =           1.7030              TOTAL IN =       1.6482E-02

          OUT:                                     OUT:
          ----                                     ----
     STORAGE-AQUEOUS =           1.7030       STORAGE-AQUEOUS =       1.6482E-02     MST             
               RCH-1 =           0.0000                 RCH-1 =           0.0000     SSM             
               CHD-1 =      9.4307E-112                 CHD-1 =      9.1563E-113     SSM             
     FLOW-CORRECTION =       1.0850E-09       FLOW-CORRECTION =       3.3985E-11                     
                 SFT =           0.0000                   SFT =           0.0000     SFR-1           

           TOTAL OUT =           1.7030             TOTAL OUT =       1.6482E-02

            IN - OUT =      -3.0739E-07              IN - OUT =      -9.4959E-12

 PERCENT DISCREPANCY =          -0.00     PERCENT DISCREPANCY =          -0.00




         TIME SUMMARY AT END OF TIME STEP    4 IN STRESS PERIOD    1
                    SECONDS     MINUTES      HOURS       DAYS        YEARS
                    -----------------------------------------------------------
   TIME STEP LENGTH 8.64000E+05  14400.      240.00      10.000     2.73785E-02
 STRESS PERIOD TIME 3.45600E+06  57600.      960.00      40.000     0.10951    
         TOTAL TIME 3.45600E+06  57600.      960.00      40.000     0.10951    


end timestep


start timestep kper="1" kstp="5" mode="normal"


 FMI SETTING BUDGET TERMS FOR KSTP 5 AND KPER 1 TO BUDGET FILE TERMS FROM KSTP 1 AND KPER 1

 FMI SETTING HEAD FOR KSTP 5 AND KPER 1 TO BINARY FILE HEADS FROM KSTP 1 AND KPER 1

 SFR-1 SETTING BUDGET TERMS FOR KSTP 5 AND KPER 1 TO BUDGET FILE TERMS FROM KSTP 1 AND KPER 1

 SFT PACKAGE (SFR-1) FLOW RATES   PERIOD      1   STEP        5
 ----------------------------------------------------------------------------------------
   NUMBER   CELLID                    RATE       NAME                                    
 ----------------------------------------------------------------------------------------
     1      (1,1,169)             7.31775753E-13 SFTREACH1                               
     2      (1,1,170)             1.10003295E-12 SFTREACH2                               
     3      (1,1,171)             0.0000000      SFTREACH3                               
     4      (1,1,172)             0.0000000      SFTREACH4                               
     5      (1,1,173)             0.0000000      SFTREACH5                               
     6      (1,1,174)             0.0000000      SFTREACH6                               
     7      (1,1,175)             0.0000000      SFTREACH7                               
     8      (1,1,176)             0.0000000      SFTREACH8                               
     9      (1,1,177)             0.0000000      SFTREACH9                               
     10     (1,1,178)             0.0000000      SFTREACH10                              
     11     (1,1,179)             0.0000000      SFTREACH11                              
     12     (1,1,180)             0.0000000      SFTREACH12                              
     13     (1,1,181)             0.0000000      SFTREACH13                              
     14     (1,1,182)             0.0000000      SFTREACH14                              
     15     (1,1,183)             0.0000000      SFTREACH15                              
     16     (1,1,184)             0.0000000      SFTREACH16                              
     17     (1,1,185)             0.0000000      SFTREACH17                              
     18     (1,1,186)             0.0000000      SFTREACH18                              
     19     (1,1,187)             0.0000000      SFTREACH19                              
     20     (1,1,188)             0.0000000      SFTREACH20                              
     21     (1,1,189)             0.0000000      SFTREACH21                              
     22     (1,1,190)             0.0000000      SFTREACH22                              
     23     (1,1,191)             0.0000000      SFTREACH23                              
     24     (1,1,192)             0.0000000      SFTREACH24                              
 ----------------------------------------------------------------------------------------




 SFR-1 PACKAGE - SUMMARY OF FLOWS FOR EACH CONTROL VOLUME   PERIOD      1   STEP        5
 ----------------------------------------------------------------------------------------------------------------------------------------------------------------------
                                                                                                                                                             PERCENT   
   NUMBER      INFLOW      OUTFLOW        GWF        RAINFALL   EVAPORATION     RUNOFF     EXT INFLOW  EXT OUTFLOW    STORAGE      CONSTANT     IN - OUT    DIFFERENCE 
 ----------------------------------------------------------------------------------------------------------------------------------------------------------------------
     1       0.0000      -7.09781E-13 -7.31776E-13  0.0000       0.0000       0.0000       0.0000       0.0000       1.44156E-12  0.0000       2.03367E-20  1.41074E-06
     2       7.09781E-13  0.0000      -1.10003E-12  0.0000       0.0000       0.0000       0.0000       0.0000       3.90252E-13  0.0000       5.44787E-21  4.95246E-07
     3       0.0000       0.0000       0.0000       0.0000       0.0000       0.0000       0.0000       0.0000       0.0000       0.0000       0.0000       0.0000     
     4       0.0000       0.0000       0.0000       0.0000       0.0000       0.0000       0.0000       0.0000       0.0000       0.0000       0.0000       0.0000     
     5       0.0000       0.0000       0.0000       0.0000       0.0000       0.0000       0.0000       0.0000       0.0000       0.0000       0.0000       0.0000     
     6       0.0000       0.0000       0.0000       0.0000       0.0000       0.0000       0.0000       0.0000       0.0000       0.0000       0.0000       0.0000     
     7       0.0000       0.0000       0.0000       0.0000       0.0000       0.0000       0.0000       0.0000       0.0000       0.0000       0.0000       0.0000     
     8       0.0000       0.0000       0.0000       0.0000       0.0000       0.0000       0.0000       0.0000       0.0000       0.0000       0.0000       0.0000     
     9       0.0000       0.0000       0.0000       0.0000       0.0000       0.0000       0.0000       0.0000       0.0000       0.0000       0.0000       0.0000     
     10      0.0000       0.0000       0.0000       0.0000       0.0000       0.0000       0.0000       0.0000       0.0000       0.0000       0.0000       0.0000     
     11      0.0000       0.0000       0.0000       0.0000       0.0000       0.0000       0.0000       0.0000       0.0000       0.0000       0.0000       0.0000     
     12      0.0000       0.0000       0.0000       0.0000       0.0000       0.0000       0.0000       0.0000       0.0000       0.0000       0.0000       0.0000     
     13      0.0000       0.0000       0.0000       0.0000       0.0000       0.0000       0.0000       0.0000       0.0000       0.0000       0.0000       0.0000     
     14      0.0000       0.0000       0.0000       0.0000       0.0000       0.0000       0.0000       0.0000       0.0000       0.0000       0.0000       0.0000     
     15      0.0000       0.0000       0.0000       0.0000       0.0000       0.0000       0.0000       0.0000       0.0000       0.0000       0.0000       0.0000     
     16      0.0000       0.0000       0.0000       0.0000       0.0000       0.0000       0.0000       0.0000       0.0000       0.0000       0.0000       0.0000     
     17      0.0000       0.0000       0.0000       0.0000       0.0000       0.0000       0.0000       0.0000       0.0000       0.0000       0.0000       0.0000     
     18      0.0000       0.0000       0.0000       0.0000       0.0000       0.0000       0.0000       0.0000       0.0000       0.0000       0.0000       0.0000     
     19      0.0000       0.0000       0.0000       0.0000       0.0000       0.0000       0.0000       0.0000       0.0000       0.0000       0.0000       0.0000     
     20      0.0000       0.0000       0.0000       0.0000       0.0000       0.0000       0.0000       0.0000       0.0000       0.0000       0.0000       0.0000     
     21      0.0000       0.0000       0.0000       0.0000       0.0000       0.0000       0.0000       0.0000       0.0000       0.0000       0.0000       0.0000     
     22      0.0000       0.0000       0.0000       0.0000       0.0000       0.0000       0.0000       0.0000       0.0000       0.0000       0.0000       0.0000     
     23      0.0000       0.0000       0.0000       0.0000       0.0000       0.0000       0.0000       0.0000       0.0000       0.0000       0.0000       0.0000     
     24      0.0000       0.0000       0.0000       0.0000       0.0000       0.0000       0.0000       0.0000       0.0000       0.0000       0.0000       0.0000     
 ----------------------------------------------------------------------------------------------------------------------------------------------------------------------




  SFR-1 BUDGET FOR ENTIRE MODEL AT END OF TIME STEP    5, STRESS PERIOD   1
  ------------------------------------------------------------------------------

     CUMULATIVE SFR-1      M       RATES FOR THIS TIME STEP      M/T
     ------------------                 ------------------------

           IN:                                      IN:
           ---                                      ---
                 GWF =           0.0000                   GWF =           0.0000
            RAINFALL =           0.0000              RAINFALL =           0.0000
         EVAPORATION =           0.0000           EVAPORATION =           0.0000
              RUNOFF =           0.0000                RUNOFF =           0.0000
          EXT-INFLOW =           0.0000            EXT-INFLOW =           0.0000
         EXT-OUTFLOW =           0.0000           EXT-OUTFLOW =           0.0000
             STORAGE =           1.0261               STORAGE =       1.8318E-12
            CONSTANT =           0.0000              CONSTANT =           0.0000

            TOTAL IN =           1.0261              TOTAL IN =       1.8318E-12

          OUT:                                     OUT:
          ----                                     ----
                 GWF =           1.0261                   GWF =       1.8318E-12
            RAINFALL =           0.0000              RAINFALL =           0.0000
         EVAPORATION =           0.0000           EVAPORATION =           0.0000
              RUNOFF =           0.0000                RUNOFF =           0.0000
          EXT-INFLOW =           0.0000            EXT-INFLOW =           0.0000
         EXT-OUTFLOW =           0.0000           EXT-OUTFLOW =           0.0000
             STORAGE =           0.0000               STORAGE =           0.0000
            CONSTANT =           0.0000              CONSTANT =           0.0000

           TOTAL OUT =           1.0261             TOTAL OUT =       1.8318E-12

            IN - OUT =       2.3682E-11              IN - OUT =       2.5785E-20

 PERCENT DISCREPANCY =           0.00     PERCENT DISCREPANCY =           0.00



  MASS BUDGET FOR ENTIRE MODEL AT END OF TIME STEP    5, STRESS PERIOD   1
[...]


 FMI SETTING BUDGET TERMS FOR KSTP 2910 AND KPER 2 TO BUDGET FILE TERMS FROM KSTP 1 AND KPER 2

 FMI SETTING HEAD FOR KSTP 2910 AND KPER 2 TO BINARY FILE HEADS FROM KSTP 1 AND KPER 2

 SFR-1 SETTING BUDGET TERMS FOR KSTP 2910 AND KPER 2 TO BUDGET FILE TERMS FROM KSTP 1 AND KPER 2

 CONCENTRATION WILL BE SAVED ON UNIT 1024 AT END OF TIME STEP 2910, STRESS PERIOD    2

end timestep


start timestep kper="2" kstp="2911" mode="normal"


 FMI SETTING BUDGET TERMS FOR KSTP 2911 AND KPER 2 TO BUDGET FILE TERMS FROM KSTP 1 AND KPER 2

 FMI SETTING HEAD FOR KSTP 2911 AND KPER 2 TO BINARY FILE HEADS FROM KSTP 1 AND KPER 2

 SFR-1 SETTING BUDGET TERMS FOR KSTP 2911 AND KPER 2 TO BUDGET FILE TERMS FROM KSTP 1 AND KPER 2

end timestep


start timestep kper="2" kstp="2912" mode="normal"


 FMI SETTING BUDGET TERMS FOR KSTP 2912 AND KPER 2 TO BUDGET FILE TERMS FROM KSTP 1 AND KPER 2

 FMI SETTING HEAD FOR KSTP 2912 AND KPER 2 TO BINARY FILE HEADS FROM KSTP 1 AND KPER 2

 SFR-1 SETTING BUDGET TERMS FOR KSTP 2912 AND KPER 2 TO BUDGET FILE TERMS FROM KSTP 1 AND KPER 2

end timestep


start timestep kper="2" kstp="2913" mode="normal"


 FMI SETTING BUDGET TERMS FOR KSTP 2913 AND KPER 2 TO BUDGET FILE TERMS FROM KSTP 1 AND KPER 2

 FMI SETTING HEAD FOR KSTP 2913 AND KPER 2 TO BINARY FILE HEADS FROM KSTP 1 AND KPER 2

 SFR-1 SETTING BUDGET TERMS FOR KSTP 2913 AND KPER 2 TO BUDGET FILE TERMS FROM KSTP 1 AND KPER 2

end timestep


start timestep kper="2" kstp="2914" mode="normal"


 FMI SETTING BUDGET TERMS FOR KSTP 2914 AND KPER 2 TO BUDGET FILE TERMS FROM KSTP 1 AND KPER 2

 FMI SETTING HEAD FOR KSTP 2914 AND KPER 2 TO BINARY FILE HEADS FROM KSTP 1 AND KPER 2

 SFR-1 SETTING BUDGET TERMS FOR KSTP 2914 AND KPER 2 TO BUDGET FILE TERMS FROM KSTP 1 AND KPER 2

end timestep


start timestep kper="2" kstp="2915" mode="normal"


 FMI SETTING BUDGET TERMS FOR KSTP 2915 AND KPER 2 TO BUDGET FILE TERMS FROM KSTP 1 AND KPER 2

 FMI SETTING HEAD FOR KSTP 2915 AND KPER 2 TO BINARY FILE HEADS FROM KSTP 1 AND KPER 2

 SFR-1 SETTING BUDGET TERMS FOR KSTP 2915 AND KPER 2 TO BUDGET FILE TERMS FROM KSTP 1 AND KPER 2

end timestep


start timestep kper="2" kstp="2916" mode="normal"


 FMI SETTING BUDGET TERMS FOR KSTP 2916 AND KPER 2 TO BUDGET FILE TERMS FROM KSTP 1 AND KPER 2

 FMI SETTING HEAD FOR KSTP 2916 AND KPER 2 TO BINARY FILE HEADS FROM KSTP 1 AND KPER 2

 SFR-1 SETTING BUDGET TERMS FOR KSTP 2916 AND KPER 2 TO BUDGET FILE TERMS FROM KSTP 1 AND KPER 2

end timestep


start timestep kper="2" kstp="2917" mode="normal"


 FMI SETTING BUDGET TERMS FOR KSTP 2917 AND KPER 2 TO BUDGET FILE TERMS FROM KSTP 1 AND KPER 2

 FMI SETTING HEAD FOR KSTP 2917 AND KPER 2 TO BINARY FILE HEADS FROM KSTP 1 AND KPER 2

 SFR-1 SETTING BUDGET TERMS FOR KSTP 2917 AND KPER 2 TO BUDGET FILE TERMS FROM KSTP 1 AND KPER 2

end timestep


start timestep kper="2" kstp="2918" mode="normal"


 FMI SETTING BUDGET TERMS FOR KSTP 2918 AND KPER 2 TO BUDGET FILE TERMS FROM KSTP 1 AND KPER 2

 FMI SETTING HEAD FOR KSTP 2918 AND KPER 2 TO BINARY FILE HEADS FROM KSTP 1 AND KPER 2

 SFR-1 SETTING BUDGET TERMS FOR KSTP 2918 AND KPER 2 TO BUDGET FILE TERMS FROM KSTP 1 AND KPER 2

end timestep


start timestep kper="2" kstp="2919" mode="normal"


 FMI SETTING BUDGET TERMS FOR KSTP 2919 AND KPER 2 TO BUDGET FILE TERMS FROM KSTP 1 AND KPER 2

 FMI SETTING HEAD FOR KSTP 2919 AND KPER 2 TO BINARY FILE HEADS FROM KSTP 1 AND KPER 2

 SFR-1 SETTING BUDGET TERMS FOR KSTP 2919 AND KPER 2 TO BUDGET FILE TERMS FROM KSTP 1 AND KPER 2

end timestep


start timestep kper="2" kstp="2920" mode="normal"


 FMI SETTING BUDGET TERMS FOR KSTP 2920 AND KPER 2 TO BUDGET FILE TERMS FROM KSTP 1 AND KPER 2

 FMI SETTING HEAD FOR KSTP 2920 AND KPER 2 TO BINARY FILE HEADS FROM KSTP 1 AND KPER 2

 SFR-1 SETTING BUDGET TERMS FOR KSTP 2920 AND KPER 2 TO BUDGET FILE TERMS FROM KSTP 1 AND KPER 2

 CONCENTRATION WILL BE SAVED ON UNIT 1024 AT END OF TIME STEP 2920, STRESS PERIOD    2

end timestep


start timestep kper="2" kstp="2921" mode="normal"


 FMI SETTING BUDGET TERMS FOR KSTP 2921 AND KPER 2 TO BUDGET FILE TERMS FROM KSTP 1 AND KPER 2

 FMI SETTING HEAD FOR KSTP 2921 AND KPER 2 TO BINARY FILE HEADS FROM KSTP 1 AND KPER 2

 SFR-1 SETTING BUDGET TERMS FOR KSTP 2921 AND KPER 2 TO BUDGET FILE TERMS FROM KSTP 1 AND KPER 2

end timestep


start timestep kper="2" kstp="2922" mode="normal"


 FMI SETTING BUDGET TERMS FOR KSTP 2922 AND KPER 2 TO BUDGET FILE TERMS FROM KSTP 1 AND KPER 2

 FMI SETTING HEAD FOR KSTP 2922 AND KPER 2 TO BINARY FILE HEADS FROM KSTP 1 AND KPER 2

 SFR-1 SETTING BUDGET TERMS FOR KSTP 2922 AND KPER 2 TO BUDGET FILE TERMS FROM KSTP 1 AND KPER 2

end timestep


start timestep kper="2" kstp="2923" mode="normal"


 FMI SETTING BUDGET TERMS FOR KSTP 2923 AND KPER 2 TO BUDGET FILE TERMS FROM KSTP 1 AND KPER 2

 FMI SETTING HEAD FOR KSTP 2923 AND KPER 2 TO BINARY FILE HEADS FROM KSTP 1 AND KPER 2

 SFR-1 SETTING BUDGET TERMS FOR KSTP 2923 AND KPER 2 TO BUDGET FILE TERMS FROM KSTP 1 AND KPER 2

end timestep


start timestep kper="2" kstp="2924" mode="normal"


 FMI SETTING BUDGET TERMS FOR KSTP 2924 AND KPER 2 TO BUDGET FILE TERMS FROM KSTP 1 AND KPER 2

 FMI SETTING HEAD FOR KSTP 2924 AND KPER 2 TO BINARY FILE HEADS FROM KSTP 1 AND KPER 2

 SFR-1 SETTING BUDGET TERMS FOR KSTP 2924 AND KPER 2 TO BUDGET FILE TERMS FROM KSTP 1 AND KPER 2

end timestep


start timestep kper="2" kstp="2925" mode="normal"


 FMI SETTING BUDGET TERMS FOR KSTP 2925 AND KPER 2 TO BUDGET FILE TERMS FROM KSTP 1 AND KPER 2

 FMI SETTING HEAD FOR KSTP 2925 AND KPER 2 TO BINARY FILE HEADS FROM KSTP 1 AND KPER 2

 SFR-1 SETTING BUDGET TERMS FOR KSTP 2925 AND KPER 2 TO BUDGET FILE TERMS FROM KSTP 1 AND KPER 2

end timestep


start timestep kper="2" kstp="2926" mode="normal"


 FMI SETTING BUDGET TERMS FOR KSTP 2926 AND KPER 2 TO BUDGET FILE TERMS FROM KSTP 1 AND KPER 2

 FMI SETTING HEAD FOR KSTP 2926 AND KPER 2 TO BINARY FILE HEADS FROM KSTP 1 AND KPER 2

 SFR-1 SETTING BUDGET TERMS FOR KSTP 2926 AND KPER 2 TO BUDGET FILE TERMS FROM KSTP 1 AND KPER 2

end timestep


start timestep kper="2" kstp="2927" mode="normal"


 FMI SETTING BUDGET TERMS FOR KSTP 2927 AND KPER 2 TO BUDGET FILE TERMS FROM KSTP 1 AND KPER 2

 FMI SETTING HEAD FOR KSTP 2927 AND KPER 2 TO BINARY FILE HEADS FROM KSTP 1 AND KPER 2

 SFR-1 SETTING BUDGET TERMS FOR KSTP 2927 AND KPER 2 TO BUDGET FILE TERMS FROM KSTP 1 AND KPER 2

 SFT PACKAGE (SFR-1) FLOW RATES   PERIOD      2   STEP     2927
 ----------------------------------------------------------------------------------------
   NUMBER   CELLID                    RATE       NAME                                    
 ----------------------------------------------------------------------------------------
     1      (1,1,169)             0.0000000      SFTREACH1                               
     2      (1,1,170)             0.0000000      SFTREACH2                               
     3      (1,1,171)             0.0000000      SFTREACH3                               
     4      (1,1,172)             0.0000000      SFTREACH4                               
     5      (1,1,173)             0.0000000      SFTREACH5                               
     6      (1,1,174)             0.0000000      SFTREACH6                               
     7      (1,1,175)             0.0000000      SFTREACH7                               
     8      (1,1,176)             0.0000000      SFTREACH8                               
     9      (1,1,177)             0.0000000      SFTREACH9                               
     10     (1,1,178)             0.0000000      SFTREACH10                              
     11     (1,1,179)             0.0000000      SFTREACH11                              
     12     (1,1,180)             0.0000000      SFTREACH12                              
     13     (1,1,181)             0.0000000      SFTREACH13                              
     14     (1,1,182)             0.0000000      SFTREACH14                              
     15     (1,1,183)             0.0000000      SFTREACH15                              
     16     (1,1,184)             0.0000000      SFTREACH16                              
     17     (1,1,185)             0.0000000      SFTREACH17                              
     18     (1,1,186)             0.0000000      SFTREACH18                              
     19     (1,1,187)             0.0000000      SFTREACH19                              
     20     (1,1,188)             0.0000000      SFTREACH20                              
     21     (1,1,189)             0.0000000      SFTREACH21                              
     22     (1,1,190)             0.0000000      SFTREACH22                              
     23     (1,1,191)             0.0000000      SFTREACH23                              
     24     (1,1,192)             0.0000000      SFTREACH24                              
 ----------------------------------------------------------------------------------------




 SFR-1 PACKAGE - SUMMARY OF FLOWS FOR EACH CONTROL VOLUME   PERIOD      2   STEP     2927
 ----------------------------------------------------------------------------------------------------------------------------------------------------------------------
                                                                                                                                                             PERCENT   
   NUMBER      INFLOW      OUTFLOW        GWF        RAINFALL   EVAPORATION     RUNOFF     EXT INFLOW  EXT OUTFLOW    STORAGE      CONSTANT     IN - OUT    DIFFERENCE 
 ----------------------------------------------------------------------------------------------------------------------------------------------------------------------
     1       0.0000       0.0000       0.0000       0.0000       0.0000       0.0000       0.0000       0.0000       0.0000       0.0000       0.0000       0.0000     
     2       0.0000       0.0000       0.0000       0.0000       0.0000       0.0000       0.0000       0.0000       0.0000       0.0000       0.0000       0.0000     
     3       0.0000       0.0000       0.0000       0.0000       0.0000       0.0000       0.0000       0.0000       0.0000       0.0000       0.0000       0.0000     
     4       0.0000       0.0000       0.0000       0.0000       0.0000       0.0000       0.0000       0.0000       0.0000       0.0000       0.0000       0.0000     
     5       0.0000       0.0000       0.0000       0.0000       0.0000       0.0000       0.0000       0.0000       0.0000       0.0000       0.0000       0.0000     
     6       0.0000       0.0000       0.0000       0.0000       0.0000       0.0000       0.0000       0.0000       0.0000       0.0000       0.0000       0.0000     
     7       0.0000       0.0000       0.0000       0.0000       0.0000       0.0000       0.0000       0.0000       0.0000       0.0000       0.0000       0.0000     
     8       0.0000       0.0000       0.0000       0.0000       0.0000       0.0000       0.0000       0.0000       0.0000       0.0000       0.0000       0.0000     
     9       0.0000       0.0000       0.0000       0.0000       0.0000       0.0000       0.0000       0.0000       0.0000       0.0000       0.0000       0.0000     
     10      0.0000       0.0000       0.0000       0.0000       0.0000       0.0000       0.0000       0.0000       0.0000       0.0000       0.0000       0.0000     
     11      0.0000       0.0000       0.0000       0.0000       0.0000       0.0000       0.0000       0.0000       0.0000       0.0000       0.0000       0.0000     
     12      0.0000       0.0000       0.0000       0.0000       0.0000       0.0000       0.0000       0.0000       0.0000       0.0000       0.0000       0.0000     
     13      0.0000       0.0000       0.0000       0.0000       0.0000       0.0000       0.0000       0.0000       0.0000       0.0000       0.0000       0.0000     
     14      0.0000       0.0000       0.0000       0.0000       0.0000       0.0000       0.0000       0.0000       0.0000       0.0000       0.0000       0.0000     
     15      0.0000       0.0000       0.0000       0.0000       0.0000       0.0000       0.0000       0.0000       0.0000       0.0000       0.0000       0.0000     
     16      0.0000       0.0000       0.0000       0.0000       0.0000       0.0000       0.0000       0.0000       0.0000       0.0000       0.0000       0.0000     
     17      0.0000       0.0000       0.0000       0.0000       0.0000       0.0000       0.0000       0.0000       0.0000       0.0000       0.0000       0.0000     
     18      0.0000       0.0000       0.0000       0.0000       0.0000       0.0000       0.0000       0.0000       0.0000       0.0000       0.0000       0.0000     
     19      0.0000       0.0000       0.0000       0.0000       0.0000       0.0000       0.0000       0.0000       0.0000       0.0000       0.0000       0.0000     
     20      0.0000       0.0000       0.0000       0.0000       0.0000       0.0000       0.0000       0.0000       0.0000       0.0000       0.0000       0.0000     
     21      0.0000       0.0000       0.0000       0.0000       0.0000       0.0000       0.0000       0.0000       0.0000       0.0000       0.0000       0.0000     
     22      0.0000       0.0000       0.0000       0.0000       0.0000       0.0000       0.0000       0.0000       0.0000       0.0000       0.0000       0.0000     
     23      0.0000       0.0000       0.0000       0.0000       0.0000       0.0000       0.0000       0.0000       0.0000       0.0000       0.0000       0.0000     
     24      0.0000       0.0000       0.0000       0.0000       0.0000       0.0000       0.0000       0.0000       0.0000       0.0000       0.0000       0.0000     
 ----------------------------------------------------------------------------------------------------------------------------------------------------------------------



 SFT PACKAGE (SFR-1) CONCENTRATION FOR EACH CONTROL VOLUME   PERIOD      2   STEP     2927
 --------------------------------------------
 NAME                   NUMBER       CONC    
 --------------------------------------------
 SFTREACH1                1       0.0000     
 SFTREACH2                2       0.0000     
 SFTREACH3                3       1.0000     
 SFTREACH4                4       1.0000     
 SFTREACH5                5       1.0000     
 SFTREACH6                6       1.0000     
 SFTREACH7                7       1.0000     
 SFTREACH8                8       1.0000     
 SFTREACH9                9       1.0000     
 SFTREACH10               10      1.0000     
 SFTREACH11               11      1.0000     
 SFTREACH12               12      1.0000     
 SFTREACH13               13      1.0000     
 SFTREACH14               14      1.0000     
 SFTREACH15               15      1.0000     
 SFTREACH16               16      1.0000     
 SFTREACH17               17      1.0000     
 SFTREACH18               18      1.0000     
 SFTREACH19               19      1.0000     
 SFTREACH20               20      1.0000     
 SFTREACH21               21      1.0000     
 SFTREACH22               22      1.0000     
 SFTREACH23               23      1.0000     
 SFTREACH24               24      1.0000     
 --------------------------------------------



 CONCENTRATION WILL BE SAVED ON UNIT 1024 AT END OF TIME STEP 2927, STRESS PERIOD    2


  SFR-1 BUDGET FOR ENTIRE MODEL AT END OF TIME STEP 2927, STRESS PERIOD   2
  ------------------------------------------------------------------------------

     CUMULATIVE SFR-1      M       RATES FOR THIS TIME STEP      M/T
     ------------------                 ------------------------

           IN:                                      IN:
           ---                                      ---
                 GWF =           0.0000                   GWF =           0.0000
            RAINFALL =           0.0000              RAINFALL =           0.0000
         EVAPORATION =           0.0000           EVAPORATION =           0.0000
              RUNOFF =           0.0000                RUNOFF =           0.0000
          EXT-INFLOW =           0.0000            EXT-INFLOW =           0.0000
         EXT-OUTFLOW =           0.0000           EXT-OUTFLOW =           0.0000
             STORAGE =           1.0261               STORAGE =           0.0000
            CONSTANT =           0.0000              CONSTANT =           0.0000

            TOTAL IN =           1.0261              TOTAL IN =           0.0000

          OUT:                                     OUT:
          ----                                     ----
                 GWF =           1.0261                   GWF =           0.0000
            RAINFALL =           0.0000              RAINFALL =           0.0000
         EVAPORATION =           0.0000           EVAPORATION =           0.0000
              RUNOFF =           0.0000                RUNOFF =           0.0000
          EXT-INFLOW =           0.0000            EXT-INFLOW =           0.0000
         EXT-OUTFLOW =           0.0000           EXT-OUTFLOW =           0.0000
             STORAGE =           0.0000               STORAGE =           0.0000
            CONSTANT =           0.0000              CONSTANT =           0.0000

           TOTAL OUT =           1.0261             TOTAL OUT =           0.0000

            IN - OUT =       2.3682E-11              IN - OUT =           0.0000

 PERCENT DISCREPANCY =           0.00     PERCENT DISCREPANCY =           0.00



  MASS BUDGET FOR ENTIRE MODEL AT END OF TIME STEP 2927, STRESS PERIOD   2
  ---------------------------------------------------------------------------------------------------

     CUMULATIVE MASS      M       RATES FOR THIS TIME STEP      M/T          PACKAGE NAME    
     ------------------                 ------------------------                     ----------------

           IN:                                      IN:
           ---                                      ---
     STORAGE-AQUEOUS =          10.6457       STORAGE-AQUEOUS =       8.6339E-07     MST             
               RCH-1 =           0.0000                 RCH-1 =           0.0000     SSM             
               CHD-1 =           0.0000                 CHD-1 =           0.0000     SSM             
     FLOW-CORRECTION =       1.1258E-06       FLOW-CORRECTION =       8.7336E-13                     
                 SFT =           1.0261                   SFT =           0.0000     SFR-1           

            TOTAL IN =          11.6718              TOTAL IN =       8.6339E-07

          OUT:                                     OUT:
          ----                                     ----
     STORAGE-AQUEOUS =          10.6546       STORAGE-AQUEOUS =       4.6977E-10     MST             
               RCH-1 =           0.0000                 RCH-1 =           0.0000     SSM             
               CHD-1 =           1.0185                 CHD-1 =       1.0743E-06     SSM             
     FLOW-CORRECTION =       2.8909E-07       FLOW-CORRECTION =       1.3823E-13                     
                 SFT =           0.0000                   SFT =           0.0000     SFR-1           

           TOTAL OUT =          11.6731             TOTAL OUT =       1.0748E-06

            IN - OUT =      -1.3604E-03              IN - OUT =      -2.1143E-07

 PERCENT DISCREPANCY =          -0.01     PERCENT DISCREPANCY =         -21.82




         TIME SUMMARY AT END OF TIME STEP 2927 IN STRESS PERIOD    2
                    SECONDS     MINUTES      HOURS       DAYS        YEARS
                    -----------------------------------------------------------
   TIME STEP LENGTH 8.64000E+05  14400.      240.00      10.000     2.73785E-02
 STRESS PERIOD TIME 2.52893E+09 4.21488E+07 7.02480E+05  29270.      80.137    
         TOTAL TIME 2.59200E+09 4.32000E+07 7.20000E+05  30000.      82.136    


end timestep

